                                  MODFLOW-2000
      U.S. GEOLOGICAL SURVEY MODULAR FINITE-DIFFERENCE GROUND-WATER FLOW MODEL
                           VERSION 1.19.01 03/25/2010


 This model run combines GLOBAL and LIST output into this single file.

 GLOBAL LISTING FILE: tutorial2.list
                         UNIT    2

 OPENING tutorial2.dis
 FILE TYPE:DIS   UNIT   11   STATUS:OLD    
 FORMAT:FORMATTED              ACCESS:SEQUENTIAL          

 OPENING tutorial2.bas
 FILE TYPE:BAS6   UNIT   13   STATUS:OLD    
 FORMAT:FORMATTED              ACCESS:SEQUENTIAL          

 OPENING tutorial2.pcg
 FILE TYPE:PCG   UNIT   27   STATUS:OLD    
 FORMAT:FORMATTED              ACCESS:SEQUENTIAL          

 OPENING tutorial2.wel
 FILE TYPE:WEL   UNIT   20   STATUS:OLD    
 FORMAT:FORMATTED              ACCESS:SEQUENTIAL          

 OPENING tutorial2.oc
 FILE TYPE:OC   UNIT   14   STATUS:OLD    
 FORMAT:FORMATTED              ACCESS:SEQUENTIAL          

 OPENING tutorial2.lpf
 FILE TYPE:LPF   UNIT   15   STATUS:OLD    
 FORMAT:FORMATTED              ACCESS:SEQUENTIAL          

 OPENING tutorial2.hds
 FILE TYPE:DATA(BINARY)   UNIT   51   STATUS:REPLACE
 FORMAT:BINARY                 ACCESS:SEQUENTIAL          

 OPENING tutorial2.ddn
 FILE TYPE:DATA(BINARY)   UNIT   52   STATUS:REPLACE
 FORMAT:BINARY                 ACCESS:SEQUENTIAL          

 OPENING tutorial2.cbc
 FILE TYPE:DATA(BINARY)   UNIT   53   STATUS:REPLACE
 FORMAT:BINARY                 ACCESS:SEQUENTIAL          

 THE FREE FORMAT OPTION HAS BEEN SELECTED

 DISCRETIZATION INPUT DATA READ FROM UNIT   11
 # DIS package for  MODFLOW-2005, generated by Flopy.
    1 LAYERS        50 ROWS        50 COLUMNS
    2 STRESS PERIOD(S) IN SIMULATION
 MODEL TIME UNIT IS DAYS
 MODEL LENGTH UNIT IS METERS
 THE GROUND-WATER TRANSPORT PROCESS IS INACTIVE

 THE OBSERVATION PROCESS IS INACTIVE
 THE SENSITIVITY PROCESS IS INACTIVE
 THE PARAMETER-ESTIMATION PROCESS IS INACTIVE

 MODE: FORWARD

  Confining bed flag for each layer:
   0

      22600  ELEMENTS OF GX ARRAY USED OUT OF      22600
       2500  ELEMENTS OF GZ ARRAY USED OUT OF       2500
       2500  ELEMENTS OF IG ARRAY USED OUT OF       2500

                     DELR =   20.0000    

                     DELC =   20.0000    

 TOP ELEVATION OF LAYER 1 =   10.0000    

   MODEL LAYER BOTTOM EL. =  -50.0000     FOR LAYER   1


 STRESS PERIOD     LENGTH       TIME STEPS     MULTIPLIER FOR DELT    SS FLAG
 ----------------------------------------------------------------------------
        1         1.000000          1                    1.000         SS
        2         100.0000        100                    1.000         TR

 COMBINED STEADY-STATE AND TRANSIENT SIMULATION




 LPF1 -- LAYER PROPERTY FLOW PACKAGE, VERSION 1, 1/11/2000
         INPUT READ FROM UNIT   15
 # LPF package for  MODFLOW-2005, generated by Flopy.
 CELL-BY-CELL FLOWS WILL BE SAVED ON UNIT   53
 HEAD AT CELLS THAT CONVERT TO DRY= -1.00000E+30
 No named parameters

   LAYER FLAGS:
 LAYER       LAYTYP        LAYAVG         CHANI        LAYVKA        LAYWET
 ---------------------------------------------------------------------------
    1             1             0     1.000E+00             0             0

   INTERPRETATION OF LAYER FLAGS:
                        INTERBLOCK     HORIZONTAL    DATA IN
         LAYER TYPE   TRANSMISSIVITY   ANISOTROPY   ARRAY VKA   WETTABILITY
 LAYER      (LAYTYP)      (LAYAVG)       (CHANI)      (LAYVKA)      (LAYWET)
 ---------------------------------------------------------------------------
    1   CONVERTIBLE      HARMONIC     1.000E+00    VERTICAL K  NON-WETTABLE

      10000 ELEMENTS IN X ARRAY ARE USED BY LPF
          6 ELEMENTS IN IX ARRAY ARE USED BY LPF

 PCG2 -- CONJUGATE GRADIENT SOLUTION PACKAGE, VERSION 2.4, 12/29/98
 # PCG package for  MODFLOW-2005, generated by Flopy.
 MAXIMUM OF     50 CALLS OF SOLUTION ROUTINE
 MAXIMUM OF     30 INTERNAL ITERATIONS PER CALL TO SOLUTION ROUTINE
 MATRIX PRECONDITIONING TYPE :    1
       8000 ELEMENTS IN X ARRAY ARE USED BY PCG
      10500 ELEMENTS IN IX ARRAY ARE USED BY PCG
      10000 ELEMENTS IN Z ARRAY ARE USED BY PCG

      18000  ELEMENTS OF X ARRAY USED OUT OF      18000
      10000  ELEMENTS OF Z ARRAY USED OUT OF      10000
      10506  ELEMENTS OF IX ARRAY USED OUT OF      10506
          0  ELEMENTS OF XHS ARRAY USED OUT OF          1



                                    SOLUTION BY THE CONJUGATE-GRADIENT METHOD
                                   -------------------------------------------
                    MAXIMUM NUMBER OF CALLS TO PCG ROUTINE =       50
                        MAXIMUM ITERATIONS PER CALL TO PCG =       30
                               MATRIX PRECONDITIONING TYPE =        1
        RELAXATION FACTOR (ONLY USED WITH PRECOND. TYPE 1) =    0.10000E+01
 PARAMETER OF POLYNOMIAL PRECOND. = 2 (2) OR IS CALCULATED :        0
                         HEAD CHANGE CRITERION FOR CLOSURE =    0.10000E-04
                     RESIDUAL CHANGE CRITERION FOR CLOSURE =    0.10000E-04
            PCG HEAD AND RESIDUAL CHANGE PRINTOUT INTERVAL =      999
     PRINTING FROM SOLVER IS LIMITED(1) OR SUPPRESSED (>1) =        3
                                         DAMPING PARAMETER =    0.10000E+01

 WETTING CAPABILITY IS NOT ACTIVE IN ANY LAYER



              HYD. COND. ALONG ROWS FOR LAYER   1
 READING ON UNIT   15 WITH FORMAT: (50E15.6)           

      VERTICAL HYD. COND. =   1.00000     FOR LAYER   1

         SPECIFIC STORAGE =  1.000000E-04 FOR LAYER   1

           SPECIFIC YIELD =  0.100000     FOR LAYER   1
 
 # BAS6 package for  MODFLOW-2005, generated by Flopy.                           
 THE FREE FORMAT OPTION HAS BEEN SELECTED
    1 LAYERS        50 ROWS        50 COLUMNS
    2 STRESS PERIOD(S) IN SIMULATION

 BAS6 -- BASIC PACKAGE, VERSION 6, 1/11/2000 INPUT READ FROM UNIT   13
          5 ELEMENTS IN IR ARRAY ARE USED BY BAS

 WEL6 -- WELL PACKAGE, VERSION 6, 1/11/2000 INPUT READ FROM UNIT   20
 # WEL package for  MODFLOW-2005, generated by Flopy.
 No named parameters
 MAXIMUM OF      1 ACTIVE WELLS AT ONE TIME
          4 ELEMENTS IN RX ARRAY ARE USED BY WEL

          4  ELEMENTS OF RX ARRAY USED OUT OF          4
          0  ELEMENTS OF RZ ARRAY USED OUT OF          1
          5  ELEMENTS OF IR ARRAY USED OUT OF          5
1
 # BAS6 package for  MODFLOW-2005, generated by Flopy.                           
                                                                                 



                     BOUNDARY ARRAY FOR LAYER   1
 READING ON UNIT   13 WITH FORMAT: (50I10)             

 AQUIFER HEAD WILL BE SET TO -999.99     AT ALL NO-FLOW NODES (IBOUND=0).



                       INITIAL HEAD FOR LAYER   1
 READING ON UNIT   13 WITH FORMAT: (50E15.6)           
 # OC package for  MODFLOW-2005, generated by Flopy.

 OUTPUT CONTROL IS SPECIFIED ONLY AT TIME STEPS FOR WHICH OUTPUT IS DESIRED
 COMPACT CELL-BY-CELL BUDGET FILES WILL BE WRITTEN
 AUXILIARY DATA WILL BE SAVED IN CELL-BY-CELL BUDGET FILES
 HEAD PRINT FORMAT CODE IS   0    DRAWDOWN PRINT FORMAT CODE IS   0
 HEADS WILL BE SAVED ON UNIT   51    DRAWDOWNS WILL BE SAVED ON UNIT   52


     0 Well parameters
1
                            STRESS PERIOD NO.    1, LENGTH =   1.000000    
                            -----------------------------------------------

                              NUMBER OF TIME STEPS =     1

                               MULTIPLIER FOR DELT =     1.000

                            INITIAL TIME STEP SIZE =   1.000000    

 WELL NO.  LAYER   ROW   COL   STRESS RATE         
 --------------------------------------------------
      1      1     25     25       0.000    

      1 WELL
 
 SOLVING FOR HEAD 

 OUTPUT CONTROL FOR STRESS PERIOD    1   TIME STEP   1
    SAVE HEAD FOR ALL LAYERS
    SAVE DRAWDOWN FOR ALL LAYERS
    SAVE BUDGET
    PRINT HEAD FOR ALL LAYERS
    PRINT BUDGET
 UBDSV2 SAVING "   CONSTANT HEAD" ON UNIT  53 AT TIME STEP  1, STRESS PERIOD   1
 UBDSV1 SAVING "FLOW RIGHT FACE " ON UNIT  53 AT TIME STEP  1, STRESS PERIOD   1
 UBDSV1 SAVING "FLOW FRONT FACE " ON UNIT  53 AT TIME STEP  1, STRESS PERIOD   1
1
              HEAD IN LAYER   1 AT END OF TIME STEP   1 IN STRESS PERIOD    1
  ---------------------------------------------------------------------------

            1           2           3           4           5           6           7           8           9          10
           11          12          13          14          15          16          17          18          19          20
           21          22          23          24          25          26          27          28          29          30
           31          32          33          34          35          36          37          38          39          40
           41          42          43          44          45          46          47          48          49          50
 ........................................................................................................................
   1    10.00       9.960       9.905       9.850       9.804       9.748       9.694       9.637       9.560       9.498    
        9.461       9.424       9.383       9.342       9.276       9.203       9.124       9.062       9.034       9.003    
        8.963       8.929       8.893       8.847       8.783       8.671       8.536       8.405       8.253       8.102    
        7.888       7.549       7.151       6.732       6.263       5.831       5.465       5.124       4.659       4.155    
        3.725       3.300       2.713       2.157       1.768       1.377       1.050      0.8388      0.5562       0.000    
   2    10.00       9.959       9.910       9.855       9.807       9.755       9.694       9.620       9.546       9.498    
        9.465       9.432       9.400       9.349       9.273       9.198       9.126       9.065       9.035       8.999    
        8.959       8.933       8.905       8.856       8.783       8.676       8.541       8.403       8.261       8.110    
        7.878       7.529       7.111       6.638       6.165       5.748       5.421       5.087       4.616       4.143    
        3.709       3.197       2.667       2.226       1.839       1.475       1.101      0.7967      0.4253       0.000    
   3    10.00       9.956       9.908       9.858       9.809       9.750       9.675       9.604       9.557       9.513    
        9.475       9.446       9.415       9.366       9.291       9.198       9.122       9.071       9.033       8.998    
        8.964       8.936       8.908       8.848       8.770       8.663       8.534       8.431       8.280       8.101    
        7.803       7.399       6.957       6.500       6.063       5.673       5.380       5.037       4.529       4.069    
        3.707       3.239       2.749       2.325       1.922       1.554       1.112      0.6836      0.3006       0.000    
   4    10.00       9.959       9.911       9.857       9.796       9.728       9.656       9.604       9.564       9.523    
        9.489       9.465       9.430       9.378       9.309       9.207       9.123       9.076       9.035       9.002    
        8.965       8.931       8.896       8.833       8.754       8.651       8.526       8.411       8.295       8.070    
        7.688       7.199       6.729       6.381       6.051       5.670       5.292       4.859       4.431       4.093    
        3.769       3.353       2.860       2.440       2.017       1.571       1.061      0.6072      0.2828       0.000    
   5    10.00       9.956       9.906       9.843       9.781       9.718       9.655       9.610       9.569       9.533    
        9.504       9.478       9.438       9.378       9.298       9.205       9.133       9.083       9.041       8.996    
        8.953       8.919       8.875       8.809       8.736       8.619       8.496       8.397       8.279       7.998    
        7.504       6.973       6.587       6.320       6.019       5.630       5.201       4.774       4.466       4.178    
        3.883       3.450       2.935       2.567       2.135       1.551      0.9654      0.5604      0.2819       0.000    
   6    10.00       9.946       9.886       9.837       9.778       9.713       9.660       9.620       9.577       9.544    
        9.517       9.486       9.434       9.365       9.296       9.220       9.143       9.081       9.029       8.978    
        8.940       8.905       8.864       8.795       8.687       8.577       8.484       8.376       8.183       7.785    
        7.244       6.770       6.475       6.270       6.024       5.599       5.131       4.785       4.557       4.302    
        4.011       3.618       3.103       2.644       2.109       1.484      0.8655      0.4928      0.2753       0.000    
   7    10.00       9.930       9.874       9.827       9.770       9.723       9.673       9.631       9.595       9.560    
        9.525       9.480       9.418       9.351       9.289       9.227       9.143       9.061       9.006       8.964    
        8.927       8.889       8.847       8.759       8.649       8.558       8.457       8.292       7.978       7.481    
        6.969       6.599       6.412       6.248       5.939       5.524       5.210       4.901       4.649       4.467    
        4.170       3.760       3.207       2.612       1.953       1.236      0.7252      0.5003      0.2533       0.000    
   8    10.00       9.926       9.874       9.823       9.773       9.731       9.688       9.648       9.613       9.580    
        9.529       9.464       9.400       9.341       9.284       9.209       9.110       9.033       8.992       8.951    
        8.909       8.876       8.812       8.722       8.624       8.518       8.334       8.077       7.662       7.236    
        6.847       6.546       6.397       6.198       5.855       5.531       5.268       5.038       4.828       4.609    
        4.298       3.790       3.151       2.473       1.724       1.115      0.7674      0.4907      0.2260       0.000    
   9    10.00       9.930       9.871       9.821       9.785       9.750       9.709       9.669       9.629       9.592    
        9.529       9.450       9.384       9.325       9.257       9.174       9.087       9.019       8.975       8.933    
        8.895       8.845       8.759       8.677       8.582       8.441       8.183       7.803       7.398       7.090    
        6.779       6.545       6.377       6.113       5.794       5.538       5.347       5.162       4.979       4.739    
        4.350       3.818       3.138       2.380       1.690       1.154      0.7827      0.4866      0.2412       0.000    
  10    10.00       9.928       9.869       9.828       9.796       9.763       9.726       9.692       9.646       9.587    
        9.512       9.434       9.370       9.306       9.237       9.142       9.054       9.000       8.960       8.918    
        8.879       8.803       8.712       8.625       8.501       8.303       7.937       7.524       7.195       6.961    
        6.764       6.560       6.344       6.072       5.790       5.584       5.429       5.273       5.066       4.784    
        4.366       3.782       3.055       2.377       1.830       1.322      0.8379      0.5165      0.2721       0.000    
  11    10.00       9.919       9.874       9.839       9.807       9.778       9.745       9.700       9.637       9.572    
        9.498       9.421       9.361       9.279       9.185       9.104       9.040       8.989       8.950       8.904    
        8.839       8.746       8.624       8.503       8.304       8.020       7.696       7.401       7.121       6.936    
        6.767       6.513       6.262       6.057       5.857       5.691       5.530       5.325       5.077       4.748    
        4.355       3.837       3.097       2.477       1.991       1.502      0.9647      0.5113      0.2052       0.000    
  12    10.00       9.926       9.881       9.845       9.819       9.788       9.752       9.692       9.619       9.553    
        9.483       9.409       9.329       9.232       9.156       9.087       9.022       8.978       8.932       8.867    
        8.753       8.603       8.443       8.273       8.036       7.815       7.615       7.327       7.079       6.910    
        6.722       6.493       6.274       6.091       5.945       5.790       5.592       5.358       5.059       4.711    
        4.322       3.815       3.135       2.579       2.138       1.609       1.014      0.4831      0.1607       0.000    
  13    10.00       9.943       9.901       9.862       9.828       9.793       9.742       9.669       9.594       9.529    
        9.458       9.385       9.303       9.206       9.120       9.052       9.006       8.954       8.893       8.761    
        8.567       8.391       8.222       8.020       7.835       7.715       7.487       7.230       7.076       6.914    
        6.698       6.485       6.312       6.161       6.029       5.882       5.648       5.351       5.054       4.692    
        4.302       3.784       3.081       2.562       2.152       1.573      0.9440      0.4368      0.1262       0.000    
  14    10.00       9.958       9.921       9.880       9.839       9.786       9.714       9.638       9.571       9.499    
        9.429       9.363       9.269       9.164       9.089       9.033       8.967       8.897       8.768       8.551    
        8.352       8.196       7.988       7.821       7.724       7.592       7.370       7.203       7.064       6.899    
        6.695       6.525       6.398       6.248       6.100       5.937       5.671       5.340       5.019       4.649    
        4.230       3.605       2.944       2.524       2.023       1.468      0.9315      0.3992      0.1027       0.000    
  15    10.00       9.967       9.929       9.889       9.842       9.764       9.675       9.609       9.544       9.476    
        9.423       9.348       9.229       9.118       9.051       8.968       8.885       8.799       8.598       8.354    
        8.191       7.987       7.798       7.721       7.646       7.503       7.319       7.156       7.036       6.892    
        6.725       6.593       6.470       6.333       6.164       5.957       5.647       5.271       4.934       4.593    
        4.139       3.529       2.955       2.390       1.784       1.288      0.8013      0.3519      0.1056       0.000    
  16    10.00       9.976       9.939       9.892       9.820       9.725       9.649       9.595       9.537       9.468    
        9.398       9.297       9.164       9.062       8.973       8.880       8.823       8.668       8.390       8.174    
        8.012       7.820       7.734       7.672       7.572       7.412       7.261       7.152       7.051       6.918    
        6.765       6.642       6.536       6.383       6.173       5.918       5.548       5.205       4.937       4.566    
        4.049       3.392       2.735       2.109       1.595       1.105      0.6830      0.3342      0.1127       0.000    
  17    10.00       9.976       9.938       9.876       9.787       9.693       9.629       9.581       9.518       9.442    
        9.333       9.208       9.093       8.987       8.883       8.797       8.674       8.432       8.185       8.037    
        7.885       7.758       7.693       7.599       7.458       7.337       7.265       7.186       7.084       6.933    
        6.790       6.674       6.568       6.425       6.136       5.786       5.468       5.220       4.961       4.493    
        3.805       3.139       2.515       1.902       1.364      0.8941      0.5726      0.2990      0.1228       0.000    
  18    10.00       9.971       9.926       9.852       9.743       9.668       9.618       9.554       9.483       9.382    
        9.254       9.146       9.035       8.900       8.770       8.639       8.471       8.240       8.062       7.938    
        7.818       7.714       7.626       7.511       7.401       7.334       7.287       7.224       7.111       6.963    
        6.829       6.708       6.571       6.342       6.046       5.744       5.466       5.242       4.881       4.262    
        3.562       2.858       2.194       1.693       1.265      0.8383      0.4918      0.2473      0.1185       0.000    
  19    10.00       9.964       9.915       9.809       9.700       9.656       9.603       9.525       9.439       9.333    
        9.218       9.118       8.964       8.768       8.622       8.494       8.301       8.100       7.984       7.895    
        7.780       7.668       7.578       7.483       7.410       7.352       7.300       7.233       7.131       7.002    
        6.878       6.734       6.529       6.291       6.026       5.727       5.469       5.150       4.548       3.917    
        3.357       2.632       2.004       1.607       1.183      0.7562      0.4439      0.2517      0.1289       0.000    
  20    10.00       9.956       9.874       9.765       9.687       9.640       9.583       9.500       9.406       9.310    
        9.194       9.047       8.825       8.638       8.514       8.363       8.180       8.072       7.971       7.856    
        7.745       7.650       7.559       7.481       7.423       7.373       7.311       7.234       7.149       7.035    
        6.908       6.738       6.502       6.250       5.971       5.704       5.385       4.822       4.186       3.689    
        3.088       2.424       1.955       1.571       1.143      0.6707      0.3875      0.2620      0.1350       0.000    
  21    10.00       9.927       9.840       9.749       9.673       9.624       9.563       9.467       9.374       9.285    
        9.132       8.914       8.695       8.560       8.427       8.273       8.143       8.047       7.938       7.828    
        7.729       7.647       7.572       7.498       7.432       7.373       7.317       7.243       7.155       7.050    
        6.919       6.702       6.438       6.175       5.889       5.596       5.117       4.538       4.036       3.436    
        2.869       2.348       1.952       1.564      0.9621      0.5425      0.3921      0.2958      0.1418       0.000    
  22    10.00       9.908       9.804       9.724       9.664       9.605       9.520       9.433       9.351       9.230    
        9.038       8.797       8.629       8.510       8.365       8.213       8.094       8.002       7.911       7.818    
        7.734       7.663       7.593       7.516       7.440       7.379       7.319       7.234       7.148       7.049    
        6.878       6.624       6.378       6.093       5.789       5.497       5.003       4.437       3.785       3.208    
        2.799       2.383       1.907       1.259      0.7493      0.5404      0.4108      0.2734      0.1011       0.000    
  23    10.00       9.882       9.781       9.719       9.656       9.569       9.478       9.414       9.312       9.163    
        8.944       8.741       8.621       8.474       8.289       8.144       8.056       7.985       7.906       7.817    
        7.741       7.679       7.617       7.547       7.465       7.386       7.308       7.224       7.130       7.006    
        6.811       6.545       6.289       6.030       5.733       5.394       4.893       4.199       3.552       3.146    
        2.770       2.246       1.567       1.013      0.7368      0.5508      0.3939      0.2323      9.2446E-02   0.000    
  24    10.00       9.865       9.792       9.718       9.630       9.541       9.471       9.400       9.303       9.107    
        8.903       8.753       8.616       8.420       8.220       8.120       8.048       7.982       7.896       7.819    
        7.760       7.698       7.628       7.561       7.485       7.403       7.310       7.201       7.092       6.929    
        6.714       6.466       6.228       5.946       5.633       5.227       4.608       3.961       3.475       3.052    
        2.591       2.010       1.404      0.9817      0.7378      0.5364      0.3592      0.2516      0.1235       0.000    
  25    10.00       9.881       9.807       9.713       9.622       9.541       9.471       9.405       9.262       9.072    
        8.915       8.762       8.582       8.366       8.219       8.131       8.050       7.970       7.892       7.828    
        7.767       7.717       7.645       7.562       7.491       7.414       7.309       7.189       7.031       6.834    
        6.618       6.397       6.155       5.807       5.420       4.914       4.352       3.845       3.425       2.928    
        2.373       1.818       1.309      0.9725      0.7646      0.5573      0.3784      0.2635      0.1640       0.000    
  26    10.00       9.897       9.826       9.728       9.629       9.555       9.481       9.384       9.242       9.109    
        8.958       8.744       8.522       8.348       8.238       8.151       8.055       7.954       7.879       7.826    
        7.777       7.729       7.660       7.579       7.504       7.414       7.291       7.153       6.953       6.715    
        6.489       6.302       6.021       5.653       5.253       4.781       4.170       3.694       3.306       2.709    
        2.085       1.600       1.296       1.062      0.8245      0.6015      0.4124      0.2862      0.1672       0.000    
  27    10.00       9.919       9.831       9.743       9.658       9.570       9.487       9.389       9.270       9.146    
        8.951       8.707       8.511       8.364       8.269       8.162       8.035       7.933       7.875       7.829    
        7.787       7.735       7.668       7.600       7.502       7.391       7.266       7.084       6.839       6.589    
        6.398       6.223       5.933       5.555       5.108       4.494       3.940       3.557       2.980       2.361    
        1.880       1.570       1.341       1.136      0.9013      0.6565      0.4480      0.3150      0.1987       0.000    
  28    10.00       9.924       9.853       9.773       9.690       9.596       9.504       9.408       9.303       9.155    
        8.923       8.707       8.531       8.383       8.278       8.166       8.058       7.958       7.876       7.826    
        7.785       7.735       7.676       7.600       7.497       7.366       7.204       6.995       6.764       6.538    
        6.336       6.130       5.809       5.377       4.829       4.223       3.764       3.242       2.651       2.217    
        1.876       1.613       1.389       1.175      0.9470      0.7164      0.5082      0.3586      0.2049       0.000    
  29    10.00       9.930       9.860       9.797       9.716       9.631       9.540       9.440       9.323       9.122    
        8.904       8.717       8.543       8.414       8.286       8.164       8.064       7.979       7.899       7.828    
        7.775       7.725       7.673       7.603       7.490       7.329       7.119       6.934       6.714       6.452    
        6.229       5.941       5.619       5.102       4.492       3.993       3.548       3.016       2.548       2.233    
        1.957       1.669       1.415       1.210       1.004      0.7575      0.5369      0.3746      0.2077       0.000    
  30    10.00       9.939       9.881       9.826       9.752       9.668       9.585       9.470       9.309       9.123    
        8.899       8.691       8.547       8.413       8.286       8.174       8.087       8.006       7.916       7.825    
        7.760       7.711       7.658       7.593       7.417       7.207       7.026       6.857       6.621       6.363    
        6.054       5.669       5.302       4.816       4.364       3.912       3.444       2.952       2.602       2.317    
        1.990       1.701       1.481       1.247       1.002      0.7837      0.5722      0.3978      0.2235       0.000    
  31    10.00       9.952       9.904       9.851       9.795       9.726       9.630       9.484       9.297       9.099    
        8.880       8.692       8.558       8.422       8.299       8.188       8.099       8.025       7.915       7.817    
        7.750       7.688       7.619       7.478       7.273       7.113       6.972       6.804       6.555       6.230    
        5.811       5.406       5.072       4.713       4.296       3.825       3.358       2.960       2.716       2.444    
        2.081       1.764       1.513       1.276       1.049      0.8242      0.6062      0.4186      0.2167       0.000    
  32    10.00       9.958       9.923       9.877       9.824       9.757       9.653       9.481       9.308       9.119    
        8.890       8.713       8.583       8.434       8.293       8.196       8.117       8.019       7.918       7.817    
        7.723       7.645       7.521       7.338       7.194       7.098       6.956       6.731       6.412       6.029    
        5.619       5.267       4.956       4.631       4.229       3.811       3.446       3.109       2.829       2.517    
        2.182       1.869       1.605       1.334       1.086      0.8960      0.6682      0.4106      0.1833       0.000    
  33    10.00       9.964       9.937       9.897       9.842       9.770       9.631       9.461       9.322       9.147    
        8.934       8.761       8.597       8.418       8.289       8.211       8.135       8.026       7.911       7.790    
        7.684       7.574       7.410       7.266       7.175       7.080       6.842       6.541       6.240       5.914    
        5.536       5.244       4.932       4.549       4.184       3.818       3.524       3.259       2.939       2.596    
        2.307       2.012       1.722       1.442       1.182      0.9697      0.7146      0.4124      0.1792       0.000    
  34    10.00       9.970       9.949       9.915       9.842       9.734       9.604       9.486       9.340       9.165    
        8.976       8.780       8.586       8.407       8.305       8.238       8.148       8.028       7.880       7.747    
        7.624       7.474       7.322       7.212       7.117       6.954       6.688       6.428       6.148       5.786    
        5.464       5.241       4.933       4.570       4.218       3.887       3.611       3.347       3.020       2.711    
        2.454       2.171       1.854       1.575       1.311       1.068      0.7640      0.4638      0.2432       0.000    
  35    10.00       9.975       9.949       9.899       9.808       9.701       9.608       9.504       9.383       9.188    
        8.975       8.769       8.568       8.425       8.337       8.260       8.148       8.009       7.846       7.685    
        7.501       7.349       7.208       7.112       7.013       6.858       6.602       6.316       6.003       5.643    
        5.413       5.175       4.876       4.614       4.324       3.981       3.681       3.462       3.155       2.828    
        2.580       2.290       1.973       1.698       1.424       1.158      0.8756      0.5803      0.2871       0.000    
  36    10.00       9.969       9.926       9.871       9.786       9.686       9.607       9.515       9.382       9.187    
        8.948       8.725       8.584       8.479       8.384       8.274       8.133       7.977       7.779       7.519    
        7.328       7.213       7.103       7.023       6.932       6.748       6.472       6.174       5.806       5.504    
        5.319       5.131       4.881       4.633       4.393       4.089       3.792       3.561       3.288       2.932    
        2.660       2.337       2.021       1.811       1.545       1.249      0.9658      0.6572      0.3215       0.000    
  37    10.00       9.951       9.905       9.849       9.765       9.678       9.587       9.498       9.372       9.142    
        8.890       8.722       8.641       8.533       8.406       8.286       8.090       7.885       7.604       7.330    
        7.232       7.135       7.030       6.940       6.829       6.609       6.343       5.956       5.635       5.451    
        5.300       5.106       4.863       4.671       4.428       4.141       3.910       3.689       3.382       2.991    
        2.635       2.332       2.112       1.895       1.628       1.347       1.064      0.7248      0.3980       0.000    
  38    10.00       9.944       9.883       9.825       9.750       9.666       9.568       9.471       9.323       9.106    
        8.917       8.785       8.679       8.572       8.423       8.205       7.972       7.716       7.400       7.237    
        7.159       7.027       6.907       6.837       6.704       6.477       6.097       5.750       5.593       5.458    
        5.301       5.099       4.883       4.693       4.457       4.198       4.009       3.784       3.393       2.963    
        2.654       2.401       2.183       1.959       1.723       1.437       1.155      0.8382      0.4142       0.000    
  39    10.00       9.927       9.867       9.814       9.742       9.644       9.539       9.438       9.298       9.120    
        8.970       8.867       8.741       8.583       8.338       8.053       7.790       7.485       7.272       7.176    
        7.038       6.884       6.796       6.726       6.597       6.295       5.933       5.740       5.601       5.463    
        5.286       5.098       4.891       4.703       4.525       4.313       4.065       3.793       3.408       3.007    
        2.682       2.421       2.249       2.061       1.795       1.513       1.226      0.8725      0.4088       0.000    
  40    10.00       9.918       9.861       9.806       9.730       9.629       9.526       9.425       9.301       9.150    
        9.025       8.930       8.759       8.493       8.176       7.891       7.613       7.359       7.211       7.075    
        6.912       6.783       6.715       6.621       6.452       6.185       5.952       5.766       5.613       5.470    
        5.298       5.097       4.904       4.748       4.593       4.379       4.093       3.808       3.417       2.988    
        2.683       2.476       2.287       2.127       1.847       1.538       1.276      0.8750      0.4073       0.000    
  41    10.00       9.925       9.858       9.791       9.709       9.629       9.543       9.448       9.324       9.185    
        9.064       8.940       8.705       8.380       8.055       7.791       7.520       7.282       7.133       6.981    
        6.816       6.707       6.626       6.516       6.346       6.153       6.001       5.822       5.633       5.466    
        5.302       5.123       4.939       4.804       4.639       4.426       4.140       3.747       3.299       2.968    
        2.747       2.547       2.352       2.128       1.837       1.541       1.317      0.9322      0.4227       0.000    
  42    10.00       9.924       9.848       9.789       9.728       9.654       9.561       9.452       9.345       9.237    
        9.074       8.851       8.576       8.265       7.964       7.724       7.458       7.230       7.066       6.894    
        6.741       6.644       6.552       6.454       6.305       6.176       6.049       5.846       5.634       5.485    
        5.353       5.157       4.961       4.830       4.678       4.451       4.099       3.636       3.226       2.980    
        2.814       2.635       2.386       2.088       1.809       1.578       1.345      0.9833      0.4851       0.000    
  43    10.00       9.917       9.853       9.802       9.753       9.681       9.589       9.485       9.363       9.187    
        8.969       8.738       8.482       8.159       7.890       7.668       7.429       7.196       6.989       6.827    
        6.693       6.595       6.519       6.440       6.316       6.185       6.056       5.845       5.662       5.553    
        5.392       5.182       4.994       4.859       4.681       4.387       3.981       3.543       3.244       3.056    
        2.878       2.673       2.367       2.062       1.815       1.592       1.391      0.9972      0.4557       0.000    
  44    10.00       9.917       9.860       9.814       9.756       9.701       9.624       9.481       9.296       9.090    
        8.906       8.673       8.363       8.094       7.881       7.624       7.363       7.113       6.908       6.767    
        6.669       6.587       6.513       6.432       6.326       6.192       6.019       5.845       5.722       5.593    
        5.449       5.266       5.050       4.845       4.628       4.299       3.874       3.513       3.282       3.100    
        2.921       2.677       2.382       2.118       1.854       1.614       1.369      0.9003      0.4140       0.000    
  45    10.00       9.926       9.873       9.813       9.756       9.707       9.579       9.408       9.219       9.042    
        8.891       8.577       8.256       8.060       7.829       7.543       7.258       7.027       6.862       6.752    
        6.679       6.602       6.521       6.426       6.309       6.177       6.032       5.899       5.791       5.657    
        5.490       5.301       5.078       4.820       4.560       4.207       3.808       3.524       3.348       3.161    
        2.922       2.643       2.390       2.149       1.915       1.676       1.278      0.8000      0.4026       0.000    
  46    10.00       9.940       9.883       9.813       9.747       9.651       9.510       9.380       9.222       9.032    
        8.779       8.480       8.223       7.975       7.727       7.451       7.186       7.016       6.881       6.776    
        6.702       6.628       6.524       6.406       6.293       6.183       6.068       5.947       5.839       5.720    
        5.570       5.370       5.118       4.811       4.441       4.074       3.779       3.578       3.395       3.200    
        2.917       2.620       2.368       2.177       1.954       1.643       1.190      0.7641      0.3767       0.000    
  47    10.00       9.951       9.897       9.827       9.713       9.586       9.466       9.364       9.218       8.967    
        8.664       8.390       8.166       7.959       7.696       7.395       7.162       7.001       6.892       6.805    
        6.724       6.636       6.527       6.404       6.295       6.208       6.114       5.995       5.870       5.754    
        5.622       5.455       5.120       4.690       4.329       4.066       3.819       3.646       3.484       3.213    
        2.869       2.555       2.327       2.195       1.948       1.567       1.125      0.7370      0.3724       0.000    
  48    10.00       9.956       9.900       9.795       9.678       9.569       9.448       9.344       9.196       8.913    
        8.582       8.353       8.169       7.915       7.609       7.338       7.163       7.001       6.893       6.824    
        6.742       6.636       6.519       6.406       6.317       6.248       6.164       6.032       5.887       5.762    
        5.625       5.423       5.074       4.717       4.396       4.105       3.885       3.708       3.501       3.157    
        2.787       2.545       2.363       2.130       1.806       1.468       1.089      0.7423      0.3930       0.000    
  49    10.00       9.953       9.869       9.767       9.679       9.562       9.444       9.334       9.148       8.848    
        8.552       8.333       8.103       7.846       7.616       7.363       7.119       6.969       6.903       6.838    
        6.760       6.639       6.503       6.405       6.337       6.286       6.189       6.037       5.885       5.771    
        5.622       5.357       5.050       4.797       4.528       4.207       3.922       3.703       3.459       3.091    
        2.793       2.581       2.330       1.994       1.707       1.402       1.071      0.7545      0.3842       0.000    
  50    10.00       9.941       9.848       9.755       9.684       9.574       9.444       9.304       9.103       8.866    
        8.566       8.273       8.034       7.829       7.644       7.361       7.082       6.969       6.911       6.848    
        6.773       6.636       6.491       6.402       6.348       6.302       6.193       6.030       5.884       5.769    
        5.606       5.327       5.091       4.874       4.582       4.263       3.974       3.684       3.333       3.007    
        2.850       2.626       2.260       1.923       1.682       1.392       1.104      0.7369      0.3027       0.000    

 HEAD WILL BE SAVED ON UNIT   51 AT END OF TIME STEP   1, STRESS PERIOD    1

 DRAWDOWN WILL BE SAVED ON UNIT   52 AT END OF TIME STEP   1, STRESS PERIOD    1
1
  VOLUMETRIC BUDGET FOR ENTIRE MODEL AT END OF TIME STEP  1 IN STRESS PERIOD   1
  ------------------------------------------------------------------------------

     CUMULATIVE VOLUMES      L**3       RATES FOR THIS TIME STEP      L**3/T
     ------------------                 ------------------------

           IN:                                      IN:
           ---                                      ---
             STORAGE =           0.0000               STORAGE =           0.0000
       CONSTANT HEAD =         539.8925         CONSTANT HEAD =         539.8925
               WELLS =           0.0000                 WELLS =           0.0000

            TOTAL IN =         539.8925              TOTAL IN =         539.8925

          OUT:                                     OUT:
          ----                                     ----
             STORAGE =           0.0000               STORAGE =           0.0000
       CONSTANT HEAD =         539.8923         CONSTANT HEAD =         539.8923
               WELLS =           0.0000                 WELLS =           0.0000

           TOTAL OUT =         539.8923             TOTAL OUT =         539.8923

            IN - OUT =       1.2207E-04              IN - OUT =       1.2207E-04

 PERCENT DISCREPANCY =           0.00     PERCENT DISCREPANCY =           0.00






          TIME SUMMARY AT END OF TIME STEP   1 IN STRESS PERIOD    1
                    SECONDS     MINUTES      HOURS       DAYS        YEARS
                    -----------------------------------------------------------
   TIME STEP LENGTH  86400.      1440.0      24.000      1.0000     2.73785E-03
 STRESS PERIOD TIME  86400.      1440.0      24.000      1.0000     2.73785E-03
         TOTAL TIME  86400.      1440.0      24.000      1.0000     2.73785E-03
1
1
                            STRESS PERIOD NO.    2, LENGTH =   100.0000    
                            -----------------------------------------------

                              NUMBER OF TIME STEPS =   100

                               MULTIPLIER FOR DELT =     1.000

                            INITIAL TIME STEP SIZE =   1.000000    

 WELL NO.  LAYER   ROW   COL   STRESS RATE         
 --------------------------------------------------
      1      1     25     25      -500.0    

      1 WELL
 
 SOLVING FOR HEAD 

 OUTPUT CONTROL FOR STRESS PERIOD    2   TIME STEP   1
    SAVE HEAD FOR ALL LAYERS
    SAVE DRAWDOWN FOR ALL LAYERS
    SAVE BUDGET
    PRINT HEAD FOR ALL LAYERS
    PRINT BUDGET
 UBDSV1 SAVING "         STORAGE" ON UNIT  53 AT TIME STEP  1, STRESS PERIOD   2
 UBDSV2 SAVING "   CONSTANT HEAD" ON UNIT  53 AT TIME STEP  1, STRESS PERIOD   2
 UBDSV1 SAVING "FLOW RIGHT FACE " ON UNIT  53 AT TIME STEP  1, STRESS PERIOD   2
 UBDSV1 SAVING "FLOW FRONT FACE " ON UNIT  53 AT TIME STEP  1, STRESS PERIOD   2
1
              HEAD IN LAYER   1 AT END OF TIME STEP   1 IN STRESS PERIOD    2
  ---------------------------------------------------------------------------

            1           2           3           4           5           6           7           8           9          10
           11          12          13          14          15          16          17          18          19          20
           21          22          23          24          25          26          27          28          29          30
           31          32          33          34          35          36          37          38          39          40
           41          42          43          44          45          46          47          48          49          50
 ........................................................................................................................
   1    10.00       9.960       9.905       9.850       9.804       9.748       9.694       9.637       9.560       9.498    
        9.461       9.424       9.383       9.342       9.276       9.203       9.124       9.062       9.034       9.003    
        8.963       8.929       8.893       8.847       8.783       8.671       8.536       8.405       8.253       8.102    
        7.888       7.549       7.151       6.732       6.263       5.831       5.465       5.124       4.659       4.155    
        3.725       3.300       2.713       2.157       1.768       1.377       1.050      0.8388      0.5562       0.000    
   2    10.00       9.959       9.910       9.855       9.807       9.755       9.694       9.620       9.546       9.498    
        9.465       9.432       9.400       9.349       9.273       9.198       9.126       9.065       9.035       8.999    
        8.959       8.933       8.905       8.856       8.783       8.676       8.541       8.403       8.261       8.110    
        7.878       7.529       7.111       6.638       6.165       5.748       5.421       5.087       4.616       4.143    
        3.709       3.197       2.667       2.226       1.839       1.475       1.101      0.7967      0.4253       0.000    
   3    10.00       9.956       9.908       9.858       9.809       9.750       9.675       9.604       9.557       9.513    
        9.475       9.446       9.415       9.366       9.291       9.198       9.122       9.071       9.033       8.998    
        8.964       8.936       8.908       8.848       8.770       8.663       8.534       8.431       8.280       8.101    
        7.803       7.399       6.957       6.500       6.063       5.673       5.380       5.037       4.529       4.069    
        3.707       3.239       2.749       2.325       1.922       1.554       1.112      0.6836      0.3006       0.000    
   4    10.00       9.959       9.911       9.857       9.796       9.728       9.656       9.604       9.564       9.523    
        9.489       9.465       9.430       9.378       9.309       9.207       9.123       9.076       9.035       9.002    
        8.965       8.931       8.896       8.833       8.754       8.651       8.526       8.411       8.295       8.070    
        7.688       7.199       6.729       6.381       6.051       5.670       5.292       4.859       4.431       4.093    
        3.769       3.353       2.860       2.440       2.017       1.571       1.061      0.6072      0.2828       0.000    
   5    10.00       9.956       9.906       9.843       9.781       9.718       9.655       9.610       9.569       9.533    
        9.504       9.478       9.438       9.378       9.298       9.205       9.133       9.083       9.041       8.996    
        8.953       8.919       8.875       8.809       8.736       8.619       8.496       8.397       8.279       7.998    
        7.504       6.973       6.587       6.320       6.019       5.630       5.201       4.774       4.466       4.178    
        3.883       3.450       2.935       2.567       2.135       1.551      0.9654      0.5604      0.2819       0.000    
   6    10.00       9.946       9.886       9.837       9.778       9.713       9.660       9.620       9.577       9.544    
        9.517       9.486       9.434       9.365       9.296       9.220       9.143       9.081       9.029       8.978    
        8.940       8.905       8.864       8.795       8.687       8.577       8.484       8.376       8.183       7.785    
        7.244       6.770       6.475       6.270       6.024       5.599       5.131       4.785       4.557       4.302    
        4.011       3.618       3.103       2.644       2.109       1.484      0.8655      0.4928      0.2753       0.000    
   7    10.00       9.930       9.874       9.827       9.770       9.723       9.673       9.631       9.595       9.560    
        9.525       9.480       9.418       9.351       9.289       9.227       9.143       9.061       9.006       8.964    
        8.927       8.889       8.847       8.759       8.649       8.558       8.457       8.292       7.978       7.481    
        6.969       6.599       6.412       6.248       5.939       5.524       5.210       4.901       4.649       4.467    
        4.170       3.760       3.207       2.612       1.953       1.236      0.7252      0.5003      0.2533       0.000    
   8    10.00       9.926       9.874       9.823       9.773       9.731       9.688       9.648       9.613       9.580    
        9.529       9.464       9.400       9.341       9.284       9.209       9.110       9.033       8.992       8.951    
        8.909       8.876       8.812       8.722       8.624       8.518       8.334       8.077       7.662       7.236    
        6.847       6.546       6.397       6.198       5.855       5.531       5.268       5.038       4.828       4.609    
        4.298       3.790       3.151       2.473       1.724       1.115      0.7674      0.4907      0.2260       0.000    
   9    10.00       9.930       9.871       9.821       9.785       9.750       9.709       9.669       9.629       9.592    
        9.529       9.450       9.384       9.325       9.257       9.174       9.087       9.019       8.975       8.933    
        8.895       8.845       8.759       8.677       8.582       8.441       8.183       7.803       7.398       7.090    
        6.779       6.545       6.377       6.113       5.794       5.538       5.347       5.162       4.979       4.739    
        4.350       3.818       3.138       2.380       1.690       1.154      0.7827      0.4866      0.2412       0.000    
  10    10.00       9.928       9.869       9.828       9.796       9.763       9.726       9.692       9.646       9.587    
        9.512       9.434       9.370       9.306       9.237       9.142       9.054       9.000       8.960       8.918    
        8.879       8.803       8.712       8.625       8.501       8.303       7.937       7.524       7.195       6.961    
        6.764       6.560       6.344       6.072       5.790       5.584       5.429       5.273       5.066       4.784    
        4.366       3.782       3.055       2.377       1.830       1.322      0.8379      0.5165      0.2721       0.000    
  11    10.00       9.919       9.874       9.839       9.807       9.778       9.745       9.700       9.637       9.572    
        9.498       9.421       9.361       9.279       9.185       9.104       9.040       8.989       8.950       8.904    
        8.839       8.746       8.624       8.503       8.304       8.020       7.696       7.401       7.121       6.936    
        6.767       6.513       6.262       6.057       5.857       5.691       5.530       5.325       5.077       4.748    
        4.355       3.837       3.097       2.477       1.991       1.502      0.9647      0.5113      0.2052       0.000    
  12    10.00       9.926       9.881       9.845       9.819       9.788       9.752       9.692       9.619       9.553    
        9.483       9.409       9.329       9.232       9.156       9.087       9.022       8.978       8.932       8.867    
        8.753       8.603       8.443       8.272       8.036       7.815       7.615       7.327       7.079       6.910    
        6.721       6.493       6.274       6.091       5.945       5.790       5.592       5.358       5.059       4.711    
        4.322       3.815       3.135       2.579       2.138       1.609       1.014      0.4831      0.1607       0.000    
  13    10.00       9.943       9.901       9.862       9.828       9.793       9.742       9.669       9.594       9.529    
        9.458       9.385       9.303       9.206       9.120       9.052       9.006       8.954       8.893       8.761    
        8.567       8.391       8.222       8.020       7.835       7.715       7.487       7.230       7.076       6.914    
        6.698       6.485       6.312       6.161       6.029       5.882       5.648       5.351       5.054       4.692    
        4.302       3.784       3.081       2.562       2.152       1.573      0.9440      0.4368      0.1262       0.000    
  14    10.00       9.958       9.921       9.880       9.839       9.786       9.714       9.638       9.571       9.499    
        9.429       9.363       9.269       9.164       9.089       9.033       8.967       8.897       8.768       8.551    
        8.352       8.196       7.988       7.820       7.724       7.592       7.369       7.202       7.064       6.899    
        6.695       6.525       6.398       6.248       6.100       5.937       5.671       5.340       5.019       4.649    
        4.230       3.605       2.944       2.524       2.023       1.468      0.9315      0.3992      0.1027       0.000    
  15    10.00       9.967       9.929       9.889       9.842       9.764       9.675       9.609       9.544       9.476    
        9.423       9.348       9.229       9.118       9.051       8.968       8.885       8.799       8.598       8.354    
        8.190       7.986       7.797       7.720       7.646       7.502       7.318       7.155       7.035       6.891    
        6.725       6.593       6.470       6.333       6.164       5.957       5.647       5.271       4.934       4.593    
        4.139       3.529       2.955       2.390       1.784       1.288      0.8013      0.3519      0.1056       0.000    
  16    10.00       9.976       9.939       9.892       9.820       9.725       9.649       9.595       9.537       9.468    
        9.398       9.297       9.164       9.062       8.973       8.880       8.823       8.668       8.390       8.173    
        8.011       7.819       7.732       7.670       7.570       7.410       7.258       7.149       7.050       6.916    
        6.764       6.641       6.536       6.383       6.173       5.918       5.548       5.205       4.937       4.566    
        4.049       3.392       2.735       2.109       1.595       1.105      0.6830      0.3342      0.1127       0.000    
  17    10.00       9.976       9.938       9.876       9.787       9.693       9.629       9.581       9.518       9.442    
        9.333       9.208       9.093       8.987       8.883       8.797       8.674       8.432       8.184       8.036    
        7.884       7.756       7.690       7.595       7.453       7.330       7.259       7.182       7.081       6.932    
        6.789       6.674       6.568       6.425       6.136       5.786       5.468       5.220       4.961       4.493    
        3.805       3.139       2.515       1.902       1.364      0.8941      0.5726      0.2990      0.1228       0.000    
  18    10.00       9.971       9.926       9.852       9.743       9.668       9.618       9.554       9.483       9.382    
        9.254       9.146       9.035       8.900       8.770       8.639       8.471       8.240       8.061       7.936    
        7.815       7.709       7.620       7.503       7.391       7.324       7.278       7.218       7.107       6.961    
        6.828       6.707       6.571       6.342       6.046       5.744       5.466       5.242       4.881       4.262    
        3.562       2.858       2.194       1.693       1.265      0.8383      0.4918      0.2473      0.1185       0.000    
  19    10.00       9.964       9.915       9.809       9.700       9.656       9.603       9.525       9.439       9.333    
        9.218       9.118       8.964       8.768       8.622       8.494       8.301       8.099       7.982       7.891    
        7.774       7.659       7.566       7.467       7.393       7.338       7.289       7.225       7.126       6.999    
        6.877       6.733       6.529       6.291       6.026       5.727       5.469       5.150       4.548       3.917    
        3.357       2.632       2.004       1.607       1.183      0.7562      0.4439      0.2517      0.1289       0.000    
  20    10.00       9.956       9.874       9.765       9.687       9.640       9.583       9.500       9.406       9.310    
        9.194       9.047       8.825       8.638       8.514       8.362       8.179       8.071       7.968       7.850    
        7.735       7.634       7.538       7.456       7.398       7.350       7.292       7.221       7.141       7.031    
        6.906       6.737       6.502       6.250       5.971       5.704       5.385       4.822       4.186       3.689    
        3.088       2.424       1.955       1.571       1.143      0.6707      0.3875      0.2620      0.1350       0.000    
  21    10.00       9.927       9.840       9.749       9.673       9.624       9.563       9.467       9.374       9.285    
        9.132       8.914       8.695       8.560       8.426       8.273       8.141       8.045       7.934       7.819    
        7.712       7.621       7.538       7.458       7.390       7.333       7.285       7.223       7.143       7.044    
        6.916       6.701       6.437       6.175       5.889       5.596       5.117       4.538       4.036       3.436    
        2.869       2.348       1.952       1.564      0.9621      0.5425      0.3921      0.2958      0.1418       0.000    
  22    10.00       9.908       9.804       9.724       9.664       9.605       9.520       9.433       9.351       9.230    
        9.038       8.797       8.629       8.510       8.364       8.212       8.092       7.998       7.903       7.803    
        7.707       7.622       7.533       7.436       7.353       7.306       7.268       7.203       7.131       7.040    
        6.875       6.623       6.377       6.093       5.789       5.497       5.003       4.437       3.785       3.208    
        2.799       2.383       1.907       1.259      0.7493      0.5404      0.4108      0.2734      0.1011       0.000    
  23    10.00       9.882       9.781       9.719       9.656       9.569       9.478       9.414       9.312       9.163    
        8.944       8.741       8.621       8.474       8.288       8.142       8.053       7.980       7.896       7.796    
        7.703       7.615       7.509       7.372       7.240       7.224       7.219       7.177       7.106       6.996    
        6.807       6.544       6.289       6.030       5.733       5.394       4.893       4.199       3.552       3.146    
        2.770       2.246       1.567       1.013      0.7368      0.5508      0.3939      0.2323      9.2446E-02   0.000    
  24    10.00       9.865       9.792       9.718       9.630       9.541       9.471       9.400       9.303       9.107    
        8.903       8.753       8.616       8.420       8.219       8.118       8.045       7.975       7.884       7.794    
        7.717       7.615       7.454       7.196       6.808       6.995       7.133       7.132       7.063       6.918    
        6.711       6.465       6.227       5.946       5.633       5.227       4.608       3.961       3.475       3.052    
        2.591       2.010       1.404      0.9817      0.7378      0.5364      0.3592      0.2516      0.1235       0.000    
  25    10.00       9.881       9.807       9.713       9.622       9.541       9.471       9.405       9.262       9.072    
        8.915       8.762       8.582       8.366       8.218       8.129       8.047       7.964       7.880       7.805    
        7.723       7.631       7.412       6.853       5.465       6.627       7.027       7.093       7.002       6.825    
        6.615       6.396       6.155       5.807       5.420       4.914       4.352       3.845       3.425       2.928    
        2.373       1.818       1.309      0.9725      0.7646      0.5573      0.3784      0.2635      0.1640       0.000    
  26    10.00       9.897       9.826       9.728       9.629       9.555       9.481       9.384       9.242       9.109    
        8.958       8.744       8.522       8.348       8.237       8.150       8.052       7.948       7.867       7.806    
        7.740       7.658       7.494       7.165       6.694       6.983       7.129       7.093       6.937       6.711    
        6.488       6.302       6.021       5.653       5.253       4.781       4.170       3.694       3.306       2.709    
        2.085       1.600       1.296       1.062      0.8245      0.6015      0.4124      0.2862      0.1672       0.000    
  27    10.00       9.919       9.831       9.743       9.658       9.570       9.487       9.389       9.270       9.146    
        8.951       8.707       8.511       8.364       8.268       8.161       8.032       7.927       7.865       7.812    
        7.761       7.687       7.571       7.415       7.241       7.217       7.188       7.058       6.833       6.587    
        6.398       6.222       5.933       5.555       5.108       4.494       3.940       3.557       2.980       2.361    
        1.880       1.570       1.341       1.136      0.9013      0.6565      0.4480      0.3150      0.1987       0.000    
  28    10.00       9.924       9.853       9.773       9.690       9.596       9.504       9.408       9.303       9.155    
        8.923       8.707       8.531       8.383       8.278       8.165       8.056       7.954       7.868       7.813    
        7.767       7.707       7.631       7.527       7.415       7.302       7.172       6.984       6.761       6.537    
        6.335       6.130       5.809       5.377       4.829       4.223       3.764       3.242       2.651       2.217    
        1.876       1.613       1.389       1.175      0.9470      0.7164      0.5082      0.3586      0.2049       0.000    
  29    10.00       9.930       9.860       9.797       9.716       9.631       9.540       9.440       9.323       9.122    
        8.904       8.716       8.543       8.414       8.286       8.164       8.062       7.976       7.893       7.819    
        7.762       7.709       7.651       7.575       7.459       7.308       7.110       6.930       6.713       6.451    
        6.229       5.941       5.619       5.102       4.492       3.993       3.548       3.016       2.548       2.233    
        1.957       1.669       1.415       1.210       1.004      0.7575      0.5369      0.3746      0.2077       0.000    
  30    10.00       9.939       9.881       9.826       9.752       9.668       9.585       9.470       9.309       9.123    
        8.899       8.691       8.547       8.413       8.286       8.174       8.086       8.004       7.913       7.820    
        7.753       7.701       7.646       7.580       7.409       7.202       7.024       6.856       6.621       6.363    
        6.054       5.669       5.302       4.816       4.364       3.912       3.444       2.952       2.602       2.317    
        1.990       1.701       1.481       1.247       1.002      0.7837      0.5722      0.3978      0.2235       0.000    
  31    10.00       9.952       9.904       9.851       9.795       9.726       9.630       9.484       9.297       9.099    
        8.880       8.692       8.558       8.422       8.299       8.187       8.098       8.024       7.913       7.815    
        7.746       7.683       7.614       7.474       7.272       7.112       6.972       6.804       6.555       6.230    
        5.811       5.406       5.072       4.713       4.296       3.825       3.358       2.960       2.716       2.444    
        2.081       1.764       1.513       1.276       1.049      0.8242      0.6062      0.4186      0.2167       0.000    
  32    10.00       9.958       9.923       9.877       9.824       9.757       9.653       9.481       9.308       9.119    
        8.890       8.713       8.583       8.434       8.293       8.196       8.116       8.018       7.917       7.816    
        7.721       7.643       7.519       7.337       7.194       7.098       6.956       6.731       6.412       6.029    
        5.619       5.267       4.956       4.631       4.229       3.811       3.446       3.109       2.829       2.517    
        2.182       1.869       1.605       1.334       1.086      0.8960      0.6682      0.4106      0.1833       0.000    
  33    10.00       9.964       9.937       9.897       9.842       9.770       9.631       9.461       9.322       9.147    
        8.934       8.761       8.597       8.418       8.289       8.211       8.134       8.026       7.911       7.789    
        7.683       7.573       7.410       7.265       7.175       7.079       6.842       6.541       6.240       5.914    
        5.536       5.244       4.932       4.549       4.184       3.818       3.524       3.259       2.939       2.596    
        2.307       2.012       1.722       1.442       1.182      0.9697      0.7146      0.4124      0.1792       0.000    
  34    10.00       9.970       9.949       9.915       9.842       9.734       9.604       9.486       9.340       9.165    
        8.976       8.780       8.586       8.407       8.305       8.238       8.148       8.028       7.879       7.747    
        7.624       7.473       7.322       7.212       7.117       6.954       6.688       6.428       6.148       5.786    
        5.464       5.241       4.933       4.570       4.218       3.887       3.611       3.347       3.020       2.711    
        2.454       2.171       1.854       1.575       1.311       1.068      0.7640      0.4638      0.2432       0.000    
  35    10.00       9.975       9.949       9.899       9.808       9.701       9.608       9.504       9.383       9.188    
        8.975       8.769       8.568       8.425       8.337       8.260       8.148       8.009       7.846       7.685    
        7.500       7.349       7.208       7.112       7.013       6.858       6.602       6.316       6.003       5.643    
        5.413       5.175       4.876       4.614       4.324       3.981       3.681       3.462       3.155       2.828    
        2.580       2.290       1.973       1.698       1.424       1.158      0.8756      0.5803      0.2871       0.000    
  36    10.00       9.969       9.926       9.871       9.786       9.686       9.607       9.515       9.382       9.187    
        8.948       8.725       8.584       8.479       8.384       8.274       8.133       7.977       7.779       7.519    
        7.328       7.213       7.103       7.023       6.932       6.748       6.472       6.174       5.806       5.504    
        5.319       5.131       4.881       4.633       4.393       4.089       3.792       3.561       3.288       2.932    
        2.660       2.337       2.021       1.811       1.545       1.249      0.9658      0.6572      0.3215       0.000    
  37    10.00       9.951       9.905       9.849       9.765       9.678       9.587       9.498       9.372       9.142    
        8.890       8.722       8.641       8.533       8.406       8.286       8.090       7.885       7.604       7.330    
        7.232       7.135       7.030       6.940       6.829       6.609       6.343       5.956       5.635       5.451    
        5.300       5.106       4.863       4.671       4.428       4.141       3.910       3.689       3.382       2.991    
        2.635       2.332       2.112       1.895       1.628       1.347       1.064      0.7248      0.3980       0.000    
  38    10.00       9.944       9.883       9.825       9.750       9.666       9.568       9.471       9.323       9.106    
        8.917       8.785       8.679       8.572       8.423       8.205       7.972       7.716       7.400       7.237    
        7.159       7.027       6.907       6.837       6.704       6.477       6.097       5.750       5.593       5.458    
        5.301       5.099       4.883       4.693       4.457       4.198       4.009       3.784       3.393       2.963    
        2.654       2.401       2.183       1.959       1.723       1.437       1.155      0.8382      0.4142       0.000    
  39    10.00       9.927       9.867       9.814       9.742       9.644       9.539       9.438       9.298       9.120    
        8.970       8.867       8.741       8.583       8.338       8.053       7.790       7.485       7.272       7.176    
        7.038       6.884       6.796       6.726       6.597       6.295       5.933       5.740       5.601       5.463    
        5.286       5.098       4.891       4.703       4.525       4.313       4.065       3.793       3.408       3.007    
        2.682       2.421       2.249       2.061       1.795       1.513       1.226      0.8725      0.4088       0.000    
  40    10.00       9.918       9.861       9.806       9.730       9.629       9.526       9.425       9.301       9.150    
        9.025       8.930       8.759       8.493       8.176       7.891       7.613       7.359       7.211       7.075    
        6.912       6.783       6.715       6.621       6.452       6.185       5.952       5.766       5.613       5.470    
        5.298       5.097       4.904       4.748       4.593       4.379       4.093       3.808       3.417       2.988    
        2.683       2.476       2.287       2.127       1.847       1.538       1.276      0.8750      0.4073       0.000    
  41    10.00       9.925       9.858       9.791       9.709       9.629       9.543       9.448       9.324       9.185    
        9.064       8.940       8.705       8.380       8.055       7.791       7.520       7.282       7.133       6.981    
        6.816       6.707       6.626       6.516       6.346       6.153       6.001       5.822       5.633       5.466    
        5.302       5.123       4.939       4.804       4.639       4.426       4.140       3.747       3.299       2.968    
        2.747       2.547       2.352       2.128       1.837       1.541       1.317      0.9322      0.4227       0.000    
  42    10.00       9.924       9.848       9.789       9.728       9.654       9.561       9.452       9.345       9.237    
        9.074       8.851       8.576       8.265       7.964       7.724       7.458       7.230       7.066       6.894    
        6.741       6.644       6.552       6.454       6.305       6.176       6.049       5.846       5.634       5.485    
        5.353       5.157       4.961       4.830       4.678       4.451       4.099       3.636       3.226       2.980    
        2.814       2.635       2.386       2.088       1.809       1.578       1.345      0.9833      0.4851       0.000    
  43    10.00       9.917       9.853       9.802       9.753       9.681       9.589       9.485       9.363       9.187    
        8.969       8.738       8.482       8.159       7.890       7.668       7.429       7.196       6.989       6.827    
        6.693       6.595       6.519       6.440       6.316       6.185       6.056       5.845       5.662       5.553    
        5.392       5.182       4.994       4.859       4.681       4.387       3.981       3.543       3.244       3.056    
        2.878       2.673       2.367       2.062       1.815       1.592       1.391      0.9972      0.4557       0.000    
  44    10.00       9.917       9.860       9.814       9.756       9.701       9.624       9.481       9.296       9.090    
        8.906       8.673       8.363       8.094       7.881       7.624       7.363       7.113       6.908       6.767    
        6.669       6.587       6.513       6.432       6.326       6.192       6.019       5.845       5.722       5.593    
        5.449       5.266       5.050       4.845       4.628       4.299       3.874       3.513       3.282       3.100    
        2.921       2.677       2.382       2.118       1.854       1.614       1.369      0.9003      0.4140       0.000    
  45    10.00       9.926       9.873       9.813       9.756       9.707       9.579       9.408       9.219       9.042    
        8.891       8.577       8.256       8.060       7.829       7.543       7.258       7.027       6.862       6.752    
        6.679       6.602       6.521       6.426       6.309       6.177       6.032       5.899       5.791       5.657    
        5.490       5.301       5.078       4.820       4.560       4.207       3.808       3.524       3.348       3.161    
        2.922       2.643       2.390       2.149       1.915       1.676       1.278      0.8000      0.4026       0.000    
  46    10.00       9.940       9.883       9.813       9.747       9.651       9.510       9.380       9.222       9.032    
        8.779       8.480       8.223       7.975       7.727       7.451       7.186       7.016       6.881       6.776    
        6.702       6.628       6.524       6.406       6.293       6.183       6.068       5.947       5.839       5.720    
        5.570       5.370       5.118       4.811       4.441       4.074       3.779       3.578       3.395       3.200    
        2.917       2.620       2.368       2.177       1.954       1.643       1.190      0.7641      0.3767       0.000    
  47    10.00       9.951       9.897       9.827       9.713       9.586       9.466       9.364       9.218       8.967    
        8.664       8.390       8.166       7.959       7.696       7.395       7.162       7.001       6.892       6.805    
        6.724       6.636       6.527       6.404       6.295       6.208       6.114       5.995       5.870       5.754    
        5.622       5.455       5.120       4.690       4.329       4.066       3.819       3.646       3.484       3.213    
        2.869       2.555       2.327       2.195       1.948       1.567       1.125      0.7370      0.3724       0.000    
  48    10.00       9.956       9.900       9.795       9.678       9.569       9.448       9.344       9.196       8.913    
        8.582       8.353       8.169       7.915       7.609       7.338       7.163       7.001       6.893       6.824    
        6.742       6.636       6.519       6.406       6.317       6.248       6.164       6.032       5.887       5.762    
        5.625       5.423       5.074       4.717       4.396       4.105       3.885       3.708       3.501       3.157    
        2.787       2.545       2.363       2.130       1.806       1.468       1.089      0.7423      0.3930       0.000    
  49    10.00       9.953       9.869       9.767       9.679       9.562       9.444       9.334       9.148       8.848    
        8.552       8.333       8.103       7.846       7.616       7.363       7.119       6.969       6.903       6.838    
        6.760       6.639       6.503       6.405       6.337       6.286       6.189       6.037       5.885       5.771    
        5.622       5.357       5.050       4.797       4.528       4.207       3.922       3.703       3.459       3.091    
        2.793       2.581       2.330       1.994       1.707       1.402       1.071      0.7545      0.3842       0.000    
  50    10.00       9.941       9.848       9.755       9.684       9.574       9.444       9.304       9.103       8.866    
        8.566       8.273       8.034       7.829       7.644       7.361       7.082       6.969       6.911       6.848    
        6.773       6.636       6.491       6.402       6.348       6.302       6.193       6.030       5.884       5.769    
        5.606       5.327       5.091       4.874       4.582       4.263       3.974       3.684       3.333       3.007    
        2.850       2.626       2.260       1.923       1.682       1.392       1.104      0.7369      0.3027       0.000    

 HEAD WILL BE SAVED ON UNIT   51 AT END OF TIME STEP   1, STRESS PERIOD    2

 DRAWDOWN WILL BE SAVED ON UNIT   52 AT END OF TIME STEP   1, STRESS PERIOD    2
1
  VOLUMETRIC BUDGET FOR ENTIRE MODEL AT END OF TIME STEP  1 IN STRESS PERIOD   2
  ------------------------------------------------------------------------------

     CUMULATIVE VOLUMES      L**3       RATES FOR THIS TIME STEP      L**3/T
     ------------------                 ------------------------

           IN:                                      IN:
           ---                                      ---
             STORAGE =         500.0032               STORAGE =         500.0032
       CONSTANT HEAD =        1079.7849         CONSTANT HEAD =         539.8925
               WELLS =           0.0000                 WELLS =           0.0000

            TOTAL IN =        1579.7881              TOTAL IN =        1039.8956

          OUT:                                     OUT:
          ----                                     ----
             STORAGE =       3.3718E-03               STORAGE =       3.3718E-03
       CONSTANT HEAD =        1079.7847         CONSTANT HEAD =         539.8923
               WELLS =         500.0000                 WELLS =         500.0000

           TOTAL OUT =        1579.7881             TOTAL OUT =        1039.8958

            IN - OUT =           0.0000              IN - OUT =      -1.2207E-04

 PERCENT DISCREPANCY =           0.00     PERCENT DISCREPANCY =           0.00






          TIME SUMMARY AT END OF TIME STEP   1 IN STRESS PERIOD    2
                    SECONDS     MINUTES      HOURS       DAYS        YEARS
                    -----------------------------------------------------------
   TIME STEP LENGTH  86400.      1440.0      24.000      1.0000     2.73785E-03
 STRESS PERIOD TIME  86400.      1440.0      24.000      1.0000     2.73785E-03
         TOTAL TIME 1.72800E+05  2880.0      48.000      2.0000     5.47570E-03
1
 
 SOLVING FOR HEAD 

 OUTPUT CONTROL FOR STRESS PERIOD    2   TIME STEP   2
    SAVE HEAD FOR ALL LAYERS
    SAVE DRAWDOWN FOR ALL LAYERS
    SAVE BUDGET
    PRINT HEAD FOR ALL LAYERS
    PRINT BUDGET
 UBDSV1 SAVING "         STORAGE" ON UNIT  53 AT TIME STEP  2, STRESS PERIOD   2
 UBDSV2 SAVING "   CONSTANT HEAD" ON UNIT  53 AT TIME STEP  2, STRESS PERIOD   2
 UBDSV1 SAVING "FLOW RIGHT FACE " ON UNIT  53 AT TIME STEP  2, STRESS PERIOD   2
 UBDSV1 SAVING "FLOW FRONT FACE " ON UNIT  53 AT TIME STEP  2, STRESS PERIOD   2
1
              HEAD IN LAYER   1 AT END OF TIME STEP   2 IN STRESS PERIOD    2
  ---------------------------------------------------------------------------

            1           2           3           4           5           6           7           8           9          10
           11          12          13          14          15          16          17          18          19          20
           21          22          23          24          25          26          27          28          29          30
           31          32          33          34          35          36          37          38          39          40
           41          42          43          44          45          46          47          48          49          50
 ........................................................................................................................
   1    10.00       9.960       9.905       9.850       9.804       9.748       9.694       9.637       9.560       9.498    
        9.461       9.424       9.383       9.342       9.276       9.203       9.124       9.062       9.034       9.003    
        8.963       8.929       8.893       8.847       8.783       8.671       8.536       8.405       8.253       8.102    
        7.888       7.549       7.151       6.732       6.263       5.831       5.465       5.124       4.659       4.155    
        3.725       3.300       2.713       2.157       1.768       1.377       1.050      0.8388      0.5562       0.000    
[...]
        5.566       5.378       5.203       5.047       4.958       4.938       4.954       4.967       5.004       5.028    
        5.052       5.026       4.977       4.894       4.772       4.622       4.319       3.927       3.425       2.950    
        2.598       2.229       1.797       1.196      0.7163      0.5177      0.3938      0.2624      9.7123E-02   0.000    
  23    10.00       9.830       9.683       9.591       9.496       9.363       9.216       9.111       8.940       8.679    
        8.279       7.893       7.654       7.348       6.944       6.609       6.394       6.210       5.994       5.730    
        5.490       5.271       5.020       4.727       4.513       4.554       4.690       4.777       4.857       4.910    
        4.932       4.922       4.881       4.804       4.691       4.525       4.221       3.736       3.233       2.899    
        2.576       2.110       1.486      0.9680      0.7062      0.5288      0.3786      0.2237      8.9055E-02   0.000    
  24    10.00       9.804       9.698       9.587       9.452       9.313       9.201       9.084       8.920       8.576    
        8.203       7.917       7.646       7.238       6.797       6.557       6.375       6.195       5.950       5.702    
        5.489       5.211       4.809       4.255       3.579       3.850       4.256       4.538       4.706       4.791    
        4.836       4.835       4.807       4.724       4.596       4.384       3.999       3.540       3.164       2.817    
        2.420       1.898       1.339      0.9411      0.7091      0.5163      0.3462      0.2428      0.1192       0.000    
  25    10.00       9.826       9.718       9.578       9.438       9.310       9.198       9.091       8.847       8.514    
        8.226       7.938       7.583       7.137       6.809       6.594       6.388       6.171       5.947       5.734    
        5.488       5.222       4.650       3.597       1.728       3.110       3.856       4.299       4.574       4.718    
        4.774       4.779       4.743       4.628       4.451       4.159       3.794       3.433       3.112       2.706    
        2.225       1.726       1.253      0.9351      0.7363      0.5374      0.3653      0.2546      0.1585       0.000    
  26    10.00       9.850       9.745       9.598       9.448       9.332       9.213       9.055       8.815       8.583    
        8.312       7.917       7.485       7.124       6.876       6.664       6.425       6.159       5.942       5.763    
        5.559       5.295       4.799       4.021       3.162       3.513       3.958       4.288       4.541       4.700    
        4.749       4.744       4.677       4.537       4.340       4.063       3.659       3.314       3.010       2.513    
        1.967       1.527       1.244       1.022      0.7949      0.5809      0.3987      0.2769      0.1618       0.000    
  27    10.00       9.881       9.752       9.620       9.491       9.354       9.222       9.063       8.865       8.652    
        8.312       7.870       7.490       7.190       6.980       6.736       6.425       6.146       5.976       5.829    
        5.668       5.423       5.045       4.583       4.112       4.073       4.238       4.445       4.633       4.729    
        4.748       4.727       4.647       4.493       4.262       3.884       3.501       3.212       2.745       2.216    
        1.787       1.502       1.288       1.094      0.8697      0.6346      0.4336      0.3050      0.1925       0.000    
  28    10.00       9.889       9.784       9.665       9.538       9.394       9.248       9.095       8.922       8.675    
        8.280       7.894       7.563       7.267       7.044       6.806       6.551       6.280       6.037       5.883    
        5.755       5.579       5.333       4.994       4.701       4.525       4.552       4.683       4.748       4.777    
        4.766       4.725       4.625       4.425       4.117       3.722       3.384       2.972       2.479       2.099    
        1.789       1.545       1.335       1.133      0.9147      0.6932      0.4925      0.3477      0.1988       0.000    
  29    10.00       9.898       9.795       9.701       9.578       9.448       9.306       9.148       8.959       8.631    
        8.263       7.937       7.623       7.373       7.119       6.866       6.633       6.415       6.179       5.975    
        5.835       5.700       5.535       5.331       5.051       4.909       4.886       4.889       4.892       4.858    
        4.804       4.719       4.596       4.338       3.951       3.592       3.241       2.805       2.405       2.122    
        1.868       1.601       1.362       1.168      0.9712      0.7341      0.5211      0.3639      0.2019       0.000    
  30    10.00       9.912       9.827       9.745       9.635       9.507       9.379       9.200       8.948       8.649    
        8.278       7.926       7.670       7.421       7.181       6.951       6.762       6.558       6.327       6.110    
        5.937       5.821       5.680       5.540       5.384       5.258       5.214       5.115       5.055       4.963    
        4.844       4.695       4.511       4.234       3.918       3.571       3.192       2.777       2.469       2.208    
        1.905       1.636       1.428       1.206      0.9715      0.7610      0.5563      0.3870      0.2175       0.000    
  31    10.00       9.930       9.861       9.784       9.702       9.599       9.454       9.234       8.948       8.633    
        8.278       7.963       7.729       7.486       7.263       7.052       6.862       6.702       6.471       6.251    
        6.092       5.967       5.857       5.749       5.672       5.557       5.431       5.323       5.193       5.049    
        4.861       4.656       4.459       4.222       3.915       3.544       3.154       2.806       2.583       2.335    
        1.999       1.702       1.464       1.238       1.019      0.8023      0.5905      0.4079      0.2113       0.000    
  32    10.00       9.940       9.891       9.824       9.747       9.650       9.498       9.247       8.988       8.690    
        8.324       8.032       7.810       7.561       7.327       7.155       6.988       6.798       6.613       6.396    
        6.232       6.100       6.003       5.917       5.827       5.732       5.584       5.453       5.300       5.105    
        4.879       4.659       4.441       4.207       3.903       3.566       3.257       2.956       2.700       2.418    
        2.108       1.812       1.559       1.298       1.059      0.8747      0.6529      0.4014      0.1794       0.000    
  33    10.00       9.950       9.911       9.855       9.777       9.675       9.479       9.234       9.025       8.760    
        8.425       8.147       7.887       7.611       7.406       7.258       7.113       6.919       6.713       6.530    
        6.347       6.215       6.100       6.002       5.920       5.825       5.686       5.517       5.361       5.170    
        4.939       4.727       4.492       4.194       3.905       3.600       3.348       3.110       2.824       2.512    
        2.242       1.960       1.681       1.410       1.157      0.9503      0.7012      0.4051      0.1762       0.000    
  34    10.00       9.959       9.929       9.882       9.782       9.635       9.456       9.286       9.070       8.809    
        8.525       8.225       7.939       7.671       7.499       7.377       7.221       7.036       6.807       6.633    
        6.473       6.311       6.186       6.085       6.004       5.895       5.740       5.579       5.406       5.189    
        4.987       4.803       4.578       4.285       3.987       3.700       3.459       3.227       2.928       2.640    
        2.395       2.124       1.818       1.547       1.290       1.051      0.7529      0.4574      0.2398       0.000    
  35    10.00       9.966       9.930       9.864       9.743       9.601       9.474       9.327       9.155       8.875    
        8.568       8.273       7.987       7.763       7.606       7.476       7.313       7.120       6.902       6.697    
        6.552       6.403       6.276       6.179       6.090       5.978       5.804       5.611       5.411       5.189    
        5.032       4.851       4.616       4.400       4.145       3.837       3.565       3.366       3.076       2.764    
        2.526       2.247       1.940       1.673       1.404       1.143      0.8646      0.5732      0.2836       0.000    
  36    10.00       9.959       9.903       9.832       9.721       9.589       9.483       9.361       9.177       8.911    
        8.583       8.276       8.071       7.894       7.739       7.576       7.385       7.194       6.971       6.723    
        6.564       6.452       6.338       6.257       6.164       6.027       5.840       5.628       5.389       5.177    
        5.035       4.888       4.677       4.464       4.248       3.971       3.694       3.475       3.214       2.871    
        2.610       2.298       1.991       1.787       1.525       1.234      0.9545      0.6497      0.3179       0.000    
  37    10.00       9.938       9.880       9.809       9.702       9.588       9.469       9.354       9.189       8.885    
        8.548       8.311       8.186       8.018       7.827       7.669       7.444       7.212       6.947       6.702    
        6.580       6.487       6.378       6.293       6.189       6.029       5.841       5.580       5.356       5.203    
        5.069       4.903       4.694       4.523       4.300       4.037       3.818       3.605       3.311       2.935    
        2.591       2.298       2.083       1.870       1.608       1.332       1.052      0.7168      0.3936       0.000    
  38    10.00       9.931       9.857       9.784       9.691       9.584       9.462       9.337       9.152       8.870    
        8.617       8.426       8.267       8.117       7.917       7.672       7.428       7.173       6.882       6.707    
        6.607       6.492       6.391       6.316       6.205       6.018       5.749       5.500       5.370       5.249    
        5.105       4.928       4.734       4.562       4.344       4.100       3.919       3.703       3.328       2.913    
        2.613       2.367       2.154       1.934       1.702       1.421       1.142      0.8291      0.4098       0.000    
  39    10.00       9.913       9.841       9.776       9.688       9.569       9.441       9.316       9.143       8.913    
        8.715       8.569       8.392       8.193       7.923       7.628       7.357       7.066       6.854       6.732    
        6.597       6.467       6.389       6.319       6.216       5.976       5.694       5.528       5.405       5.279    
        5.119       4.949       4.760       4.586       4.419       4.217       3.979       3.717       3.347       2.959    
        2.642       2.387       2.219       2.035       1.773       1.495       1.212      0.8630      0.4044       0.000    
  40    10.00       9.904       9.837       9.772       9.683       9.562       9.438       9.315       9.161       8.971    
        8.808       8.682       8.477       8.183       7.856       7.561       7.275       7.022       6.861       6.721    
        6.569       6.452       6.380       6.300       6.164       5.954       5.752       5.579       5.438       5.308    
        5.151       4.965       4.786       4.638       4.490       4.285       4.009       3.735       3.358       2.942    
        2.645       2.443       2.257       2.099       1.824       1.520       1.261      0.8652      0.4029       0.000    
  41    10.00       9.914       9.837       9.760       9.665       9.571       9.467       9.353       9.202       9.030    
        8.875       8.730       8.480       8.140       7.803       7.527       7.244       6.998       6.843       6.695    
        6.543       6.438       6.363       6.268       6.125       5.962       5.822       5.652       5.475       5.322    
        5.170       5.000       4.826       4.696       4.538       4.334       4.058       3.679       3.245       2.924    
        2.708       2.512       2.320       2.101       1.815       1.523       1.301      0.9216      0.4179       0.000    
  42    10.00       9.915       9.828       9.761       9.691       9.604       9.495       9.367       9.239       9.108    
        8.920       8.680       8.393       8.071       7.760       7.506       7.230       6.987       6.823       6.656    
        6.514       6.421       6.341       6.253       6.118       6.000       5.880       5.689       5.492       5.353    
        5.225       5.039       4.851       4.725       4.579       4.360       4.021       3.574       3.176       2.936    
        2.773       2.599       2.354       2.062       1.787       1.559       1.329      0.9720      0.4796       0.000    
  43    10.00       9.908       9.835       9.778       9.723       9.641       9.534       9.413       9.274       9.081    
        8.846       8.602       8.333       7.999       7.717       7.483       7.235       6.991       6.783       6.628    
        6.498       6.405       6.334       6.260       6.144       6.019       5.898       5.702       5.529       5.424    
        5.269       5.067       4.885       4.755       4.584       4.301       3.909       3.485       3.194       3.010    
        2.837       2.636       2.336       2.036       1.793       1.573       1.375      0.9856      0.4505       0.000    
  44    10.00       9.908       9.845       9.794       9.729       9.667       9.580       9.423       9.223       9.005    
        8.809       8.560       8.238       7.959       7.731       7.464       7.192       6.940       6.733       6.596    
        6.499       6.416       6.342       6.264       6.164       6.036       5.873       5.710       5.591       5.466    
        5.327       5.150       4.942       4.744       4.535       4.218       3.807       3.457       3.232       3.054    
        2.879       2.641       2.351       2.091       1.831       1.595       1.352      0.8899      0.4093       0.000    
  45    10.00       9.918       9.860       9.793       9.731       9.678       9.540       9.356       9.155       8.968    
        8.807       8.479       8.144       7.941       7.700       7.405       7.111       6.877       6.708       6.596    
        6.520       6.441       6.359       6.267       6.156       6.031       5.892       5.765       5.661       5.531    
        5.370       5.187       4.972       4.722       4.472       4.131       3.744       3.468       3.297       3.114    
        2.880       2.607       2.359       2.122       1.892       1.656       1.263      0.7910      0.3981       0.000    
  46    10.00       9.934       9.872       9.795       9.723       9.620       9.472       9.333       9.165       8.965    
        8.700       8.390       8.122       7.864       7.609       7.324       7.052       6.877       6.737       6.628    
        6.551       6.475       6.371       6.256       6.148       6.042       5.932       5.815       5.710       5.595    
        5.450       5.257       5.013       4.717       4.359       4.004       3.718       3.523       3.344       3.152    
        2.876       2.586       2.338       2.151       1.931       1.624       1.176      0.7557      0.3726       0.000    
  47    10.00       9.947       9.888       9.812       9.690       9.555       9.428       9.320       9.166       8.903    
        8.587       8.303       8.070       7.854       7.583       7.273       7.032       6.866       6.754       6.663    
        6.581       6.492       6.384       6.262       6.155       6.071       5.979       5.863       5.742       5.630    
        5.504       5.342       5.019       4.604       4.254       3.998       3.758       3.590       3.431       3.167    
        2.831       2.522       2.298       2.168       1.925       1.549       1.113      0.7292      0.3684       0.000    
  48    10.00       9.952       9.892       9.779       9.654       9.538       9.410       9.301       9.146       8.850    
        8.505       8.267       8.076       7.813       7.497       7.217       7.035       6.868       6.757       6.686    
        6.603       6.496       6.379       6.268       6.179       6.112       6.030       5.902       5.761       5.641    
        5.508       5.314       4.978       4.633       4.321       4.038       3.823       3.651       3.449       3.114    
        2.751       2.514       2.335       2.105       1.786       1.453       1.078      0.7347      0.3890       0.000    
  49    10.00       9.950       9.859       9.751       9.657       9.532       9.408       9.292       9.097       8.784    
        8.476       8.248       8.010       7.744       7.505       7.244       6.992       6.836       6.768       6.703    
        6.623       6.501       6.365       6.268       6.200       6.150       6.056       5.908       5.761       5.651    
        5.508       5.252       4.956       4.712       4.450       4.138       3.861       3.648       3.410       3.051    
        2.759       2.550       2.303       1.972       1.689       1.388       1.061      0.7470      0.3804       0.000    
  50    10.00       9.937       9.837       9.738       9.663       9.546       9.409       9.262       9.051       8.804    
        8.492       8.186       7.938       7.726       7.535       7.242       6.954       6.837       6.777       6.713    
        6.637       6.500       6.354       6.266       6.212       6.166       6.061       5.902       5.762       5.650    
        5.493       5.225       4.996       4.787       4.505       4.195       3.914       3.631       3.289       2.969    
        2.815       2.595       2.235       1.902       1.664       1.377       1.093      0.7297      0.2997       0.000    

 HEAD WILL BE SAVED ON UNIT   51 AT END OF TIME STEP 100, STRESS PERIOD    2

 DRAWDOWN WILL BE SAVED ON UNIT   52 AT END OF TIME STEP 100, STRESS PERIOD    2
1
  VOLUMETRIC BUDGET FOR ENTIRE MODEL AT END OF TIME STEP100 IN STRESS PERIOD   2
  ------------------------------------------------------------------------------

     CUMULATIVE VOLUMES      L**3       RATES FOR THIS TIME STEP      L**3/T
     ------------------                 ------------------------

           IN:                                      IN:
           ---                                      ---
             STORAGE =       44929.4219               STORAGE =         361.0478
       CONSTANT HEAD =       59242.6562         CONSTANT HEAD =         664.4199
               WELLS =           0.0000                 WELLS =           0.0000

            TOTAL IN =      104172.0781              TOTAL IN =        1025.4677

          OUT:                                     OUT:
          ----                                     ----
             STORAGE =       9.3745E-03               STORAGE =           0.0000
       CONSTANT HEAD =       54172.0469         CONSTANT HEAD =         525.4677
               WELLS =       50000.0000                 WELLS =         500.0000

           TOTAL OUT =      104172.0547             TOTAL OUT =        1025.4678

            IN - OUT =       2.3438E-02              IN - OUT =      -1.2207E-04

 PERCENT DISCREPANCY =           0.00     PERCENT DISCREPANCY =           0.00






          TIME SUMMARY AT END OF TIME STEP 100 IN STRESS PERIOD    2
                    SECONDS     MINUTES      HOURS       DAYS        YEARS
                    -----------------------------------------------------------
   TIME STEP LENGTH  86400.      1440.0      24.000      1.0000     2.73785E-03
 STRESS PERIOD TIME 8.64000E+06 1.44000E+05  2400.0      100.00     0.27379    
         TOTAL TIME 8.72640E+06 1.45440E+05  2424.0      101.00     0.27652    
1
