                                  MODFLOW-2000
      U.S. GEOLOGICAL SURVEY MODULAR FINITE-DIFFERENCE GROUND-WATER FLOW MODEL
                           VERSION 1.19.01 03/25/2010


 This model run combines GLOBAL and LIST output into this single file.

 GLOBAL LISTING FILE: tutorial2.list
                         UNIT    2

 OPENING tutorial2.dis
 FILE TYPE:DIS   UNIT   11   STATUS:OLD    
 FORMAT:FORMATTED              ACCESS:SEQUENTIAL          

 OPENING tutorial2.bas
 FILE TYPE:BAS6   UNIT   13   STATUS:OLD    
 FORMAT:FORMATTED              ACCESS:SEQUENTIAL          

 OPENING tutorial2.pcg
 FILE TYPE:PCG   UNIT   27   STATUS:OLD    
 FORMAT:FORMATTED              ACCESS:SEQUENTIAL          

 OPENING tutorial2.wel
 FILE TYPE:WEL   UNIT   20   STATUS:OLD    
 FORMAT:FORMATTED              ACCESS:SEQUENTIAL          

 OPENING tutorial2.oc
 FILE TYPE:OC   UNIT   14   STATUS:OLD    
 FORMAT:FORMATTED              ACCESS:SEQUENTIAL          

 OPENING tutorial2.lpf
 FILE TYPE:LPF   UNIT   15   STATUS:OLD    
 FORMAT:FORMATTED              ACCESS:SEQUENTIAL          

 OPENING tutorial2.hds
 FILE TYPE:DATA(BINARY)   UNIT   51   STATUS:REPLACE
 FORMAT:BINARY                 ACCESS:SEQUENTIAL          

 OPENING tutorial2.ddn
 FILE TYPE:DATA(BINARY)   UNIT   52   STATUS:REPLACE
 FORMAT:BINARY                 ACCESS:SEQUENTIAL          

 OPENING tutorial2.cbc
 FILE TYPE:DATA(BINARY)   UNIT   53   STATUS:REPLACE
 FORMAT:BINARY                 ACCESS:SEQUENTIAL          

 THE FREE FORMAT OPTION HAS BEEN SELECTED

 DISCRETIZATION INPUT DATA READ FROM UNIT   11
 # DIS package for  MODFLOW-2005, generated by Flopy.
    1 LAYERS        50 ROWS        50 COLUMNS
    2 STRESS PERIOD(S) IN SIMULATION
 MODEL TIME UNIT IS DAYS
 MODEL LENGTH UNIT IS METERS
 THE GROUND-WATER TRANSPORT PROCESS IS INACTIVE

 THE OBSERVATION PROCESS IS INACTIVE
 THE SENSITIVITY PROCESS IS INACTIVE
 THE PARAMETER-ESTIMATION PROCESS IS INACTIVE

 MODE: FORWARD

  Confining bed flag for each layer:
   0

      22600  ELEMENTS OF GX ARRAY USED OUT OF      22600
       2500  ELEMENTS OF GZ ARRAY USED OUT OF       2500
       2500  ELEMENTS OF IG ARRAY USED OUT OF       2500

                     DELR =   20.0000    

                     DELC =   20.0000    

 TOP ELEVATION OF LAYER 1 =   10.0000    

   MODEL LAYER BOTTOM EL. =  -50.0000     FOR LAYER   1


 STRESS PERIOD     LENGTH       TIME STEPS     MULTIPLIER FOR DELT    SS FLAG
 ----------------------------------------------------------------------------
        1         1.000000          1                    1.000         SS
        2         100.0000        100                    1.000         TR

 COMBINED STEADY-STATE AND TRANSIENT SIMULATION




 LPF1 -- LAYER PROPERTY FLOW PACKAGE, VERSION 1, 1/11/2000
         INPUT READ FROM UNIT   15
 # LPF package for  MODFLOW-2005, generated by Flopy.
 CELL-BY-CELL FLOWS WILL BE SAVED ON UNIT   53
 HEAD AT CELLS THAT CONVERT TO DRY= -1.00000E+30
 No named parameters

   LAYER FLAGS:
 LAYER       LAYTYP        LAYAVG         CHANI        LAYVKA        LAYWET
 ---------------------------------------------------------------------------
    1             1             0     1.000E+00             0             0

   INTERPRETATION OF LAYER FLAGS:
                        INTERBLOCK     HORIZONTAL    DATA IN
         LAYER TYPE   TRANSMISSIVITY   ANISOTROPY   ARRAY VKA   WETTABILITY
 LAYER      (LAYTYP)      (LAYAVG)       (CHANI)      (LAYVKA)      (LAYWET)
 ---------------------------------------------------------------------------
    1   CONVERTIBLE      HARMONIC     1.000E+00    VERTICAL K  NON-WETTABLE

      10000 ELEMENTS IN X ARRAY ARE USED BY LPF
          6 ELEMENTS IN IX ARRAY ARE USED BY LPF

 PCG2 -- CONJUGATE GRADIENT SOLUTION PACKAGE, VERSION 2.4, 12/29/98
 # PCG package for  MODFLOW-2005, generated by Flopy.
 MAXIMUM OF     50 CALLS OF SOLUTION ROUTINE
 MAXIMUM OF     30 INTERNAL ITERATIONS PER CALL TO SOLUTION ROUTINE
 MATRIX PRECONDITIONING TYPE :    1
       8000 ELEMENTS IN X ARRAY ARE USED BY PCG
      10500 ELEMENTS IN IX ARRAY ARE USED BY PCG
      10000 ELEMENTS IN Z ARRAY ARE USED BY PCG

      18000  ELEMENTS OF X ARRAY USED OUT OF      18000
      10000  ELEMENTS OF Z ARRAY USED OUT OF      10000
      10506  ELEMENTS OF IX ARRAY USED OUT OF      10506
          0  ELEMENTS OF XHS ARRAY USED OUT OF          1



                                    SOLUTION BY THE CONJUGATE-GRADIENT METHOD
                                   -------------------------------------------
                    MAXIMUM NUMBER OF CALLS TO PCG ROUTINE =       50
                        MAXIMUM ITERATIONS PER CALL TO PCG =       30
                               MATRIX PRECONDITIONING TYPE =        1
        RELAXATION FACTOR (ONLY USED WITH PRECOND. TYPE 1) =    0.10000E+01
 PARAMETER OF POLYNOMIAL PRECOND. = 2 (2) OR IS CALCULATED :        0
                         HEAD CHANGE CRITERION FOR CLOSURE =    0.10000E-04
                     RESIDUAL CHANGE CRITERION FOR CLOSURE =    0.10000E-04
            PCG HEAD AND RESIDUAL CHANGE PRINTOUT INTERVAL =      999
     PRINTING FROM SOLVER IS LIMITED(1) OR SUPPRESSED (>1) =        3
                                         DAMPING PARAMETER =    0.10000E+01

 WETTING CAPABILITY IS NOT ACTIVE IN ANY LAYER



              HYD. COND. ALONG ROWS FOR LAYER   1
 READING ON UNIT   15 WITH FORMAT: (50E15.6)           

      VERTICAL HYD. COND. =   1.00000     FOR LAYER   1

         SPECIFIC STORAGE =  1.000000E-04 FOR LAYER   1

           SPECIFIC YIELD =  0.100000     FOR LAYER   1
 
 # BAS6 package for  MODFLOW-2005, generated by Flopy.                           
 THE FREE FORMAT OPTION HAS BEEN SELECTED
    1 LAYERS        50 ROWS        50 COLUMNS
    2 STRESS PERIOD(S) IN SIMULATION

 BAS6 -- BASIC PACKAGE, VERSION 6, 1/11/2000 INPUT READ FROM UNIT   13
          5 ELEMENTS IN IR ARRAY ARE USED BY BAS

 WEL6 -- WELL PACKAGE, VERSION 6, 1/11/2000 INPUT READ FROM UNIT   20
 # WEL package for  MODFLOW-2005, generated by Flopy.
 No named parameters
 MAXIMUM OF      1 ACTIVE WELLS AT ONE TIME
          4 ELEMENTS IN RX ARRAY ARE USED BY WEL

          4  ELEMENTS OF RX ARRAY USED OUT OF          4
          0  ELEMENTS OF RZ ARRAY USED OUT OF          1
          5  ELEMENTS OF IR ARRAY USED OUT OF          5
1
 # BAS6 package for  MODFLOW-2005, generated by Flopy.                           
                                                                                 



                     BOUNDARY ARRAY FOR LAYER   1
 READING ON UNIT   13 WITH FORMAT: (50I10)             

 AQUIFER HEAD WILL BE SET TO -999.99     AT ALL NO-FLOW NODES (IBOUND=0).



                       INITIAL HEAD FOR LAYER   1
 READING ON UNIT   13 WITH FORMAT: (50E15.6)           
 # OC package for  MODFLOW-2005, generated by Flopy.

 OUTPUT CONTROL IS SPECIFIED ONLY AT TIME STEPS FOR WHICH OUTPUT IS DESIRED
 COMPACT CELL-BY-CELL BUDGET FILES WILL BE WRITTEN
 AUXILIARY DATA WILL BE SAVED IN CELL-BY-CELL BUDGET FILES
 HEAD PRINT FORMAT CODE IS   0    DRAWDOWN PRINT FORMAT CODE IS   0
 HEADS WILL BE SAVED ON UNIT   51    DRAWDOWNS WILL BE SAVED ON UNIT   52


     0 Well parameters
1
                            STRESS PERIOD NO.    1, LENGTH =   1.000000    
                            -----------------------------------------------

                              NUMBER OF TIME STEPS =     1

                               MULTIPLIER FOR DELT =     1.000

                            INITIAL TIME STEP SIZE =   1.000000    

 WELL NO.  LAYER   ROW   COL   STRESS RATE         
 --------------------------------------------------
      1      1     25     25       0.000    

      1 WELL
 
 SOLVING FOR HEAD 

 OUTPUT CONTROL FOR STRESS PERIOD    1   TIME STEP   1
    SAVE HEAD FOR ALL LAYERS
    SAVE DRAWDOWN FOR ALL LAYERS
    SAVE BUDGET
    PRINT HEAD FOR ALL LAYERS
    PRINT BUDGET
 UBDSV2 SAVING "   CONSTANT HEAD" ON UNIT  53 AT TIME STEP  1, STRESS PERIOD   1
 UBDSV1 SAVING "FLOW RIGHT FACE " ON UNIT  53 AT TIME STEP  1, STRESS PERIOD   1
 UBDSV1 SAVING "FLOW FRONT FACE " ON UNIT  53 AT TIME STEP  1, STRESS PERIOD   1
1
              HEAD IN LAYER   1 AT END OF TIME STEP   1 IN STRESS PERIOD    1
  ---------------------------------------------------------------------------

            1           2           3           4           5           6           7           8           9          10
           11          12          13          14          15          16          17          18          19          20
           21          22          23          24          25          26          27          28          29          30
           31          32          33          34          35          36          37          38          39          40
           41          42          43          44          45          46          47          48          49          50
 ........................................................................................................................
   1    10.00       9.960       9.902       9.836       9.772       9.700       9.631       9.563       9.478       9.394    
        9.330       9.266       9.201       9.138       9.035       8.911       8.773       8.665       8.608       8.542    
        8.463       8.399       8.336       8.261       8.161       7.964       7.741       7.584       7.430       7.285    
        7.096       6.795       6.409       5.982       5.540       5.070       4.605       4.218       3.713       3.165    
        2.715       2.285       1.807       1.408       1.161      0.9524      0.7868      0.6669      0.4476       0.000    
   2    10.00       9.959       9.906       9.840       9.775       9.711       9.643       9.554       9.461       9.392    
        9.336       9.282       9.227       9.149       9.031       8.902       8.772       8.665       8.607       8.533    
        8.454       8.406       8.355       8.277       8.151       7.958       7.756       7.594       7.438       7.297    
        7.086       6.770       6.366       5.880       5.408       4.954       4.551       4.178       3.664       3.134    
        2.683       2.198       1.763       1.449       1.217       1.037      0.8317      0.6492      0.3621       0.000    
   3    10.00       9.953       9.901       9.842       9.785       9.720       9.633       9.539       9.473       9.412    
        9.349       9.300       9.252       9.176       9.055       8.896       8.755       8.668       8.600       8.525    
        8.461       8.411       8.358       8.256       8.119       7.948       7.773       7.645       7.464       7.278    
        7.014       6.640       6.182       5.712       5.292       4.867       4.472       4.072       3.540       3.049    
        2.661       2.214       1.814       1.526       1.295       1.109      0.8655      0.5802      0.2630       0.000    
   4    10.00       9.953       9.902       9.845       9.781       9.705       9.616       9.544       9.487       9.424    
        9.369       9.327       9.274       9.188       9.071       8.902       8.756       8.674       8.598       8.531    
        8.462       8.401       8.335       8.228       8.094       7.941       7.782       7.626       7.467       7.256    
        6.925       6.434       5.949       5.592       5.239       4.799       4.324       3.855       3.430       3.057    
        2.693       2.277       1.900       1.639       1.379       1.142      0.8410      0.5220      0.2500       0.000    
   5    10.00       9.950       9.899       9.834       9.769       9.699       9.619       9.557       9.498       9.439    
        9.391       9.351       9.280       9.181       9.052       8.899       8.774       8.685       8.611       8.522    
        8.441       8.375       8.295       8.190       8.070       7.915       7.757       7.613       7.451       7.198    
        6.728       6.184       5.795       5.514       5.164       4.685       4.194       3.767       3.446       3.108    
        2.749       2.365       1.990       1.746       1.467       1.125      0.7657      0.4656      0.2342       0.000    
   6    10.00       9.943       9.882       9.829       9.769       9.693       9.625       9.572       9.510       9.454    
        9.409       9.360       9.272       9.161       9.049       8.920       8.795       8.693       8.596       8.495    
        8.413       8.337       8.268       8.173       8.021       7.870       7.741       7.595       7.372       6.994    
        6.480       5.989       5.665       5.419       5.102       4.627       4.136       3.771       3.499       3.191    
        2.860       2.520       2.135       1.808       1.438       1.061      0.6765      0.4019      0.2213       0.000    
   7    10.00       9.932       9.873       9.823       9.762       9.698       9.638       9.587       9.530       9.476    
        9.420       9.347       9.251       9.146       9.040       8.940       8.810       8.674       8.562       8.463    
        8.378       8.305       8.244       8.130       7.975       7.845       7.715       7.524       7.176       6.699    
        6.206       5.806       5.581       5.359       4.990       4.547       4.213       3.855       3.554       3.350    
        3.034       2.667       2.214       1.748       1.334      0.9219      0.5831      0.4050      0.2085       0.000    
   8    10.00       9.931       9.878       9.822       9.760       9.704       9.651       9.600       9.548       9.496    
        9.423       9.330       9.235       9.136       9.039       8.927       8.768       8.625       8.535       8.440    
        8.346       8.282       8.197       8.077       7.944       7.808       7.595       7.302       6.875       6.457    
        6.080       5.760       5.548       5.292       4.900       4.529       4.227       3.961       3.722       3.485    
        3.175       2.713       2.156       1.660       1.228      0.8635      0.6175      0.3969      0.1902       0.000    
   9    10.00       9.942       9.877       9.816       9.770       9.724       9.671       9.617       9.559       9.503    
        9.420       9.315       9.213       9.115       9.012       8.881       8.729       8.598       8.501       8.405    
        8.322       8.242       8.129       8.017       7.897       7.736       7.438       7.048       6.650       6.342    
        6.027       5.751       5.515       5.192       4.825       4.510       4.277       4.075       3.860       3.598    
        3.225       2.720       2.152       1.658       1.238      0.8830      0.6233      0.4005      0.2048       0.000    
  10    10.00       9.940       9.872       9.821       9.779       9.734       9.686       9.640       9.574       9.492    
        9.393       9.283       9.187       9.095       8.991       8.833       8.673       8.561       8.471       8.381    
        8.303       8.198       8.074       7.951       7.816       7.596       7.228       6.820       6.472       6.223    
        6.012       5.766       5.484       5.152       4.800       4.526       4.340       4.163       3.929       3.628    
        3.201       2.678       2.158       1.736       1.341      0.9723      0.6430      0.4254      0.2286       0.000    
  11    10.00       9.927       9.872       9.831       9.789       9.751       9.707       9.643       9.553       9.463    
        9.364       9.257       9.169       9.061       8.921       8.772       8.642       8.542       8.460       8.370    
        8.259       8.129       7.971       7.834       7.625       7.327       7.010       6.695       6.389       6.189    
        6.021       5.719       5.401       5.124       4.845       4.622       4.423       4.195       3.906       3.544    
        3.143       2.737       2.236       1.819       1.443       1.076      0.7227      0.4178      0.1752       0.000    
  12    10.00       9.930       9.879       9.835       9.800       9.760       9.710       9.622       9.518       9.432    
        9.341       9.232       9.125       8.999       8.878       8.743       8.618       8.531       8.444       8.327    
        8.157       7.973       7.794       7.612       7.345       7.116       6.911       6.608       6.340       6.163    
        5.966       5.695       5.416       5.150       4.934       4.719       4.462       4.184       3.833       3.468    
        3.127       2.759       2.275       1.864       1.509       1.125      0.7607      0.3943      0.1308       0.000    
  13    10.00       9.943       9.895       9.849       9.807       9.760       9.682       9.581       9.485       9.397    
        9.296       9.191       9.083       8.954       8.823       8.697       8.607       8.506       8.396       8.187    
        7.946       7.757       7.565       7.335       7.128       6.997       6.774       6.507       6.336       6.162    
        5.916       5.663       5.434       5.215       5.020       4.817       4.507       4.127       3.786       3.440    
        3.113       2.731       2.212       1.830       1.525       1.116      0.6997      0.3407      0.1043       0.000    
  14    10.00       9.956       9.915       9.866       9.809       9.732       9.631       9.531       9.445       9.351    
        9.248       9.151       9.031       8.900       8.786       8.678       8.551       8.429       8.232       7.937    
        7.714       7.534       7.296       7.112       6.999       6.874       6.659       6.475       6.318       6.136    
        5.906       5.690       5.509       5.297       5.078       4.867       4.518       4.100       3.747       3.389    
        3.053       2.579       2.085       1.784       1.438       1.071      0.7017      0.3159      8.9964E-02   0.000    
  15    10.00       9.965       9.922       9.868       9.800       9.690       9.568       9.481       9.401       9.309    
        9.230       9.132       8.982       8.836       8.735       8.582       8.430       8.304       8.023       7.712    
        7.515       7.292       7.091       7.003       6.924       6.789       6.603       6.426       6.287       6.126    
        5.920       5.742       5.574       5.378       5.151       4.889       4.482       4.021       3.649       3.322    
        2.961       2.483       2.092       1.715       1.304      0.9803      0.6277      0.2900      9.8102E-02   0.000    
  16    10.00       9.971       9.925       9.859       9.760       9.629       9.521       9.452       9.383       9.291    
        9.197       9.059       8.879       8.743       8.607       8.439       8.338       8.108       7.734       7.473    
        7.299       7.112       7.023       6.955       6.849       6.695       6.544       6.422       6.300       6.141    
        5.949       5.774       5.627       5.427       5.151       4.805       4.347       3.949       3.651       3.301    
        2.881       2.410       1.990       1.582       1.228      0.8691      0.5637      0.2932      0.1046       0.000    
  17    10.00       9.967       9.912       9.824       9.712       9.578       9.483       9.424       9.343       9.248    
        9.087       8.901       8.755       8.623       8.457       8.298       8.108       7.766       7.466       7.305    
        7.169       7.054       6.990       6.886       6.742       6.629       6.553       6.460       6.325       6.140    
        5.960       5.794       5.634       5.441       5.064       4.617       4.262       3.994       3.701       3.277    
        2.745       2.285       1.895       1.512       1.102      0.7256      0.4810      0.2665      0.1110       0.000    
  18    10.00       9.954       9.884       9.782       9.636       9.524       9.458       9.372       9.276       9.138    
        8.941       8.790       8.658       8.468       8.263       8.058       7.809       7.528       7.347       7.225    
        7.121       7.024       6.932       6.809       6.696       6.630       6.576       6.494       6.346       6.155    
        5.979       5.802       5.596       5.306       4.927       4.560       4.271       4.049       3.680       3.163    
        2.650       2.168       1.776       1.417       1.024      0.6698      0.4068      0.2229      0.1040       0.000    
  19    10.00       9.938       9.858       9.711       9.567       9.502       9.420       9.310       9.195       9.042    
        8.871       8.725       8.523       8.264       8.059       7.867       7.612       7.392       7.281       7.203    
        7.100       6.993       6.897       6.788       6.706       6.647       6.586       6.492       6.347       6.171    
        5.993       5.788       5.514       5.205       4.882       4.563       4.308       4.023       3.507       3.000    
        2.595       2.102       1.677       1.327      0.9408      0.6039      0.3662      0.2116      0.1059       0.000    
  20    10.00       9.920       9.797       9.645       9.540       9.467       9.377       9.261       9.126       8.986    
        8.811       8.601       8.336       8.106       7.931       7.710       7.488       7.376       7.284       7.187    
        7.089       6.985       6.878       6.788       6.725       6.663       6.582       6.474       6.336       6.164    
        5.981       5.764       5.476       5.175       4.870       4.586       4.312       3.874       3.334       2.904    
        2.457       1.981       1.605       1.255      0.8949      0.5427      0.3180      0.2134      0.1078       0.000    
  21    10.00       9.874       9.748       9.625       9.516       9.434       9.337       9.190       9.055       8.922    
        8.698       8.441       8.200       8.016       7.834       7.628       7.473       7.380       7.284       7.187    
        7.082       6.981       6.893       6.809       6.733       6.656       6.574       6.454       6.302       6.138    
        5.956       5.720       5.445       5.160       4.872       4.589       4.202       3.759       3.286       2.775    
        2.326       1.880       1.555       1.234      0.7771      0.4578      0.3257      0.2375      0.1141       0.000    
  22    10.00       9.856       9.708       9.589       9.497       9.400       9.260       9.116       8.998       8.825    
        8.594       8.330       8.126       7.976       7.780       7.595       7.468       7.379       7.291       7.189    
        7.086       7.000       6.915       6.826       6.736       6.654       6.558       6.404       6.253       6.109    
        5.908       5.676       5.436       5.149       4.858       4.578       4.167       3.713       3.158       2.654    
        2.267       1.862       1.502       1.027      0.6382      0.4583      0.3443      0.2288      9.0789E-02   0.000    
  23    10.00       9.825       9.682       9.583       9.484       9.341       9.185       9.074       8.927       8.750    
        8.518       8.285       8.128       7.940       7.732       7.574       7.471       7.393       7.301       7.192    
        7.095       7.018       6.941       6.857       6.753       6.635       6.505       6.359       6.214       6.057    
        5.872       5.638       5.396       5.146       4.854       4.547       4.156       3.589       3.005       2.591    
        2.220       1.761       1.246      0.8356      0.6213      0.4696      0.3432      0.2175      0.1012       0.000    
  24    10.00       9.802       9.699       9.586       9.447       9.292       9.169       9.049       8.906       8.703    
        8.490       8.309       8.135       7.909       7.690       7.568       7.486       7.408       7.304       7.200    
        7.114       7.042       6.962       6.870       6.748       6.611       6.469       6.311       6.169       6.008    
        5.812       5.590       5.368       5.102       4.817       4.504       4.018       3.422       2.925       2.486    
        2.037       1.555       1.101      0.7952      0.6169      0.4660      0.3347      0.2535      0.1395       0.000    
  25    10.00       9.828       9.719       9.584       9.438       9.299       9.174       9.059       8.884       8.682    
        8.503       8.328       8.114       7.864       7.696       7.586       7.496       7.406       7.310       7.217    
        7.131       7.067       6.972       6.851       6.726       6.592       6.444       6.293       6.128       5.941    
        5.754       5.559       5.318       5.009       4.714       4.350       3.858       3.287       2.835       2.361    
        1.844       1.391       1.022      0.7850      0.6408      0.5005      0.3655      0.2693      0.1757       0.000    
  26    10.00       9.853       9.751       9.606       9.455       9.333       9.202       9.057       8.877       8.718    
        8.561       8.323       8.051       7.840       7.718       7.620       7.511       7.393       7.292       7.213    
        7.150       7.082       6.978       6.849       6.727       6.591       6.428       6.269       6.082       5.865    
        5.662       5.485       5.227       4.931       4.651       4.259       3.624       3.105       2.730       2.155    
        1.598       1.225       1.009      0.8507      0.6976      0.5423      0.4018      0.2942      0.1756       0.000    
  27    10.00       9.886       9.762       9.639       9.504       9.362       9.232       9.090       8.927       8.771    
        8.557       8.272       8.036       7.863       7.755       7.640       7.496       7.369       7.286       7.221    
        7.164       7.085       6.981       6.877       6.717       6.553       6.411       6.235       6.024       5.790    
        5.594       5.418       5.179       4.887       4.524       3.938       3.360       2.963       2.398       1.843    
        1.449       1.207       1.051      0.9166      0.7753      0.5963      0.4291      0.3211      0.2158       0.000    
  28    10.00       9.897       9.792       9.674       9.552       9.417       9.281       9.137       8.980       8.798    
        8.530       8.269       8.060       7.891       7.776       7.653       7.526       7.398       7.289       7.221    
        7.162       7.087       6.997       6.869       6.699       6.532       6.372       6.197       5.989       5.754    
        5.530       5.343       5.084       4.717       4.224       3.645       3.175       2.649       2.102       1.738    
        1.454       1.256       1.101      0.9678      0.8226      0.6513      0.4858      0.3649      0.2224       0.000    
  29    10.00       9.902       9.803       9.714       9.596       9.472       9.341       9.194       9.026       8.778    
        8.512       8.280       8.076       7.932       7.792       7.656       7.536       7.428       7.320       7.228    
        7.154       7.077       6.989       6.866       6.691       6.518       6.339       6.171       5.944       5.656    
        5.423       5.162       4.893       4.438       3.902       3.416       2.950       2.432       2.022       1.762    
        1.531       1.313       1.144       1.014      0.8726      0.6970      0.5266      0.3853      0.2246       0.000    
  30    10.00       9.910       9.828       9.750       9.647       9.533       9.414       9.249       9.036       8.779    
        8.502       8.262       8.089       7.941       7.797       7.664       7.557       7.463       7.355       7.240    
        7.146       7.060       6.963       6.848       6.652       6.459       6.295       6.122       5.858       5.553    
        5.242       4.900       4.588       4.160       3.758       3.317       2.845       2.379       2.083       1.847    
        1.586       1.372       1.209       1.054      0.8947      0.7393      0.5607      0.4013      0.2424       0.000    
  31    10.00       9.925       9.854       9.781       9.705       9.614       9.483       9.285       9.034       8.766    
        8.496       8.269       8.101       7.944       7.814       7.684       7.572       7.491       7.368       7.246    
        7.142       7.032       6.921       6.751       6.563       6.417       6.274       6.078       5.771       5.413    
        5.010       4.655       4.370       4.068       3.685       3.238       2.796       2.419       2.183       1.970    
        1.699       1.452       1.262       1.098      0.9398      0.7752      0.5964      0.4284      0.2357       0.000    
  32    10.00       9.937       9.882       9.818       9.744       9.661       9.528       9.301       9.062       8.815    
        8.524       8.285       8.113       7.962       7.822       7.706       7.604       7.493       7.379       7.256    
        7.117       6.991       6.836       6.649       6.515       6.421       6.268       5.987       5.597       5.194    
        4.834       4.542       4.280       4.009       3.651       3.256       2.888       2.560       2.307       2.067    
        1.814       1.557       1.354       1.163      0.9820      0.8334      0.6504      0.4284      0.2127       0.000    
  33    10.00       9.945       9.900       9.848       9.776       9.680       9.509       9.288       9.088       8.854    
        8.566       8.323       8.139       7.966       7.828       7.730       7.632       7.513       7.384       7.238    
        7.090       6.936       6.747       6.598       6.504       6.407       6.139       5.777       5.421       5.092    
        4.778       4.537       4.290       3.967       3.638       3.286       2.974       2.710       2.446       2.182    
        1.947       1.703       1.481       1.280       1.080      0.9037      0.6982      0.4367      0.2057       0.000    
  34    10.00       9.950       9.920       9.874       9.784       9.649       9.483       9.319       9.111       8.854    
        8.594       8.351       8.148       7.968       7.848       7.768       7.657       7.523       7.361       7.212    
        7.055       6.861       6.688       6.562       6.458       6.276       5.970       5.679       5.353       5.008    
        4.755       4.563       4.333       4.020       3.695       3.379       3.093       2.855       2.586       2.322    
        2.098       1.874       1.639       1.434       1.221       1.014      0.7532      0.4837      0.2550       0.000    
  35    10.00       9.959       9.924       9.865       9.751       9.608       9.486       9.345       9.150       8.869    
        8.588       8.355       8.144       7.992       7.892       7.799       7.667       7.505       7.336       7.163    
        6.970       6.781       6.606       6.483       6.364       6.196       5.911       5.587       5.251       4.941    
        4.763       4.572       4.335       4.098       3.825       3.495       3.211       3.020       2.749       2.456    
        2.246       2.023       1.799       1.598       1.361       1.130      0.8675      0.5789      0.2893       0.000    
  36    10.00       9.956       9.906       9.839       9.725       9.589       9.478       9.344       9.145       8.878    
        8.580       8.324       8.166       8.049       7.948       7.820       7.652       7.483       7.284       7.032    
        6.831       6.672       6.526       6.416       6.309       6.114       5.810       5.490       5.160       4.903    
        4.743       4.581       4.368       4.149       3.918       3.620       3.339       3.132       2.895       2.581    
        2.346       2.120       1.892       1.726       1.498       1.242      0.9802      0.6789      0.3453       0.000    
  37    10.00       9.941       9.885       9.812       9.696       9.571       9.446       9.314       9.130       8.839    
        8.535       8.326       8.229       8.112       7.972       7.833       7.625       7.407       7.134       6.871    
        6.742       6.617       6.475       6.353       6.220       5.981       5.711       5.374       5.099       4.923    
        4.770       4.598       4.382       4.194       3.955       3.671       3.451       3.251       2.989       2.676    
        2.395       2.175       1.994       1.809       1.592       1.355       1.104      0.7661      0.4150       0.000    
  38    10.00       9.934       9.861       9.782       9.675       9.551       9.410       9.272       9.074       8.803    
        8.569       8.402       8.277       8.163       7.995       7.763       7.514       7.227       6.929       6.776    
        6.676       6.515       6.365       6.266       6.108       5.876       5.556       5.267       5.120       4.982    
        4.811       4.620       4.417       4.227       3.994       3.736       3.540       3.336       3.024       2.698    
        2.454       2.251       2.067       1.882       1.689       1.461       1.201      0.8765      0.4547       0.000    
  39    10.00       9.916       9.841       9.762       9.656       9.516       9.364       9.217       9.035       8.815    
        8.631       8.504       8.358       8.185       7.912       7.600       7.283       6.974       6.802       6.714    
        6.559       6.381       6.274       6.179       6.027       5.760       5.463       5.291       5.164       5.018    
        4.834       4.655       4.450       4.248       4.051       3.840       3.614       3.377       3.057       2.736    
        2.480       2.276       2.133       1.986       1.777       1.543       1.282      0.9286      0.4547       0.000    
  40    10.00       9.901       9.828       9.748       9.640       9.493       9.335       9.186       9.032       8.847    
        8.693       8.580       8.383       8.086       7.730       7.378       7.061       6.859       6.753       6.630    
        6.454       6.305       6.214       6.088       5.913       5.698       5.513       5.345       5.196       5.057    
        4.887       4.689       4.483       4.294       4.114       3.900       3.657       3.420       3.072       2.722    
        2.491       2.322       2.173       2.047       1.835       1.575       1.335      0.9648      0.4763       0.000    
  41    10.00       9.908       9.822       9.733       9.612       9.478       9.340       9.205       9.056       8.890    
        8.742       8.595       8.313       7.927       7.534       7.218       6.976       6.809       6.697       6.552    
        6.371       6.246       6.136       6.003       5.855       5.707       5.574       5.413       5.235       5.075    
        4.922       4.735       4.527       4.356       4.169       3.960       3.712       3.382       2.997       2.728    
        2.541       2.365       2.228       2.069       1.846       1.588       1.376       1.024      0.5243       0.000    
  42    10.00       9.910       9.814       9.731       9.626       9.501       9.362       9.211       9.076       8.946    
        8.762       8.487       8.130       7.732       7.380       7.140       6.931       6.776       6.641       6.466    
        6.301       6.183       6.069       5.977       5.856       5.750       5.627       5.442       5.251       5.109    
        4.977       4.774       4.552       4.392       4.232       3.998       3.679       3.284       2.943       2.739    
        2.589       2.440       2.271       2.064       1.832       1.625       1.411       1.066      0.5485       0.000    
  43    10.00       9.911       9.822       9.737       9.653       9.541       9.401       9.251       9.102       8.910    
        8.635       8.317       7.953       7.571       7.303       7.103       6.905       6.739       6.575       6.401    
        6.249       6.138       6.057       5.987       5.882       5.769       5.647       5.465       5.296       5.181    
        5.013       4.791       4.583       4.425       4.241       3.955       3.581       3.200       2.963       2.802    
        2.644       2.483       2.276       2.053       1.842       1.641       1.449       1.063      0.4788       0.000    
  44    10.00       9.905       9.824       9.750       9.657       9.570       9.451       9.266       9.061       8.790    
        8.510       8.176       7.779       7.503       7.297       7.075       6.859       6.667       6.488       6.334    
        6.226       6.140       6.066       5.994       5.903       5.787       5.644       5.502       5.371       5.227    
        5.065       4.865       4.630       4.407       4.191       3.899       3.509       3.181       2.991       2.835    
        2.684       2.506       2.299       2.100       1.879       1.656       1.405      0.9101      0.4022       0.000    
  45    10.00       9.905       9.838       9.753       9.665       9.587       9.410       9.197       8.954       8.686    
        8.452       8.051       7.683       7.478       7.265       7.022       6.776       6.579       6.423       6.314    
        6.238       6.163       6.086       5.999       5.902       5.795       5.676       5.556       5.449       5.301    
        5.107       4.893       4.655       4.386       4.141       3.824       3.458       3.200       3.044       2.888    
        2.691       2.486       2.304       2.124       1.931       1.692       1.267      0.7628      0.3863       0.000    
  46    10.00       9.922       9.850       9.759       9.662       9.513       9.326       9.149       8.926       8.665    
        8.326       7.958       7.663       7.406       7.189       6.948       6.702       6.549       6.433       6.333    
        6.263       6.194       6.101       5.998       5.902       5.808       5.711       5.604       5.497       5.360    
        5.180       4.956       4.692       4.388       4.047       3.707       3.441       3.265       3.092       2.912    
        2.686       2.472       2.291       2.147       1.939       1.605       1.136      0.7184      0.3650       0.000    
  47    10.00       9.939       9.872       9.777       9.608       9.429       9.268       9.116       8.916       8.590    
        8.225       7.883       7.599       7.383       7.151       6.884       6.672       6.536       6.444       6.362    
        6.287       6.206       6.114       6.012       5.918       5.837       5.751       5.646       5.522       5.387    
        5.227       5.028       4.687       4.284       3.964       3.714       3.483       3.332       3.173       2.923    
        2.654       2.429       2.261       2.143       1.883       1.485       1.054      0.6912      0.3548       0.000    
  48    10.00       9.946       9.875       9.733       9.562       9.413       9.242       9.088       8.875       8.530    
        8.133       7.823       7.593       7.336       7.065       6.826       6.667       6.535       6.446       6.385    
        6.310       6.212       6.111       6.023       5.947       5.879       5.797       5.680       5.534       5.376    
        5.211       4.982       4.630       4.300       4.020       3.772       3.556       3.385       3.180       2.880    
        2.596       2.415       2.275       2.055       1.707       1.351       1.006      0.6961      0.3745       0.000    
  49    10.00       9.943       9.842       9.714       9.574       9.401       9.229       9.056       8.792       8.427    
        8.085       7.795       7.518       7.274       7.065       6.840       6.635       6.515       6.457       6.398    
        6.327       6.217       6.105       6.032       5.970       5.916       5.824       5.682       5.516       5.365    
        5.192       4.913       4.615       4.394       4.138       3.847       3.585       3.379       3.142       2.823    
        2.593       2.435       2.226       1.894       1.585       1.294      0.9949      0.6960      0.3732       0.000    
  50    10.00       9.935       9.830       9.700       9.573       9.411       9.218       9.003       8.724       8.436    
        8.078       7.716       7.458       7.264       7.088       6.834       6.607       6.517       6.465       6.406    
        6.335       6.221       6.107       6.036       5.983       5.933       5.829       5.666       5.498       5.355    
        5.177       4.890       4.660       4.461       4.193       3.904       3.630       3.347       3.024       2.757    
        2.638       2.459       2.136       1.803       1.574       1.292       1.009      0.6816      0.3039       0.000    

 HEAD WILL BE SAVED ON UNIT   51 AT END OF TIME STEP   1, STRESS PERIOD    1

 DRAWDOWN WILL BE SAVED ON UNIT   52 AT END OF TIME STEP   1, STRESS PERIOD    1
1
  VOLUMETRIC BUDGET FOR ENTIRE MODEL AT END OF TIME STEP  1 IN STRESS PERIOD   1
  ------------------------------------------------------------------------------

     CUMULATIVE VOLUMES      L**3       RATES FOR THIS TIME STEP      L**3/T
     ------------------                 ------------------------

           IN:                                      IN:
           ---                                      ---
             STORAGE =           0.0000               STORAGE =           0.0000
       CONSTANT HEAD =         597.0887         CONSTANT HEAD =         597.0887
               WELLS =           0.0000                 WELLS =           0.0000

            TOTAL IN =         597.0887              TOTAL IN =         597.0887

          OUT:                                     OUT:
          ----                                     ----
             STORAGE =           0.0000               STORAGE =           0.0000
       CONSTANT HEAD =         597.0886         CONSTANT HEAD =         597.0886
               WELLS =           0.0000                 WELLS =           0.0000

           TOTAL OUT =         597.0886             TOTAL OUT =         597.0886

            IN - OUT =       1.2207E-04              IN - OUT =       1.2207E-04

 PERCENT DISCREPANCY =           0.00     PERCENT DISCREPANCY =           0.00






          TIME SUMMARY AT END OF TIME STEP   1 IN STRESS PERIOD    1
                    SECONDS     MINUTES      HOURS       DAYS        YEARS
                    -----------------------------------------------------------
   TIME STEP LENGTH  86400.      1440.0      24.000      1.0000     2.73785E-03
 STRESS PERIOD TIME  86400.      1440.0      24.000      1.0000     2.73785E-03
         TOTAL TIME  86400.      1440.0      24.000      1.0000     2.73785E-03
1
1
                            STRESS PERIOD NO.    2, LENGTH =   100.0000    
                            -----------------------------------------------

                              NUMBER OF TIME STEPS =   100

                               MULTIPLIER FOR DELT =     1.000

                            INITIAL TIME STEP SIZE =   1.000000    

 WELL NO.  LAYER   ROW   COL   STRESS RATE         
 --------------------------------------------------
      1      1     25     25      -500.0    

      1 WELL
 
 SOLVING FOR HEAD 

 OUTPUT CONTROL FOR STRESS PERIOD    2   TIME STEP   1
    SAVE HEAD FOR ALL LAYERS
    SAVE DRAWDOWN FOR ALL LAYERS
    SAVE BUDGET
    PRINT HEAD FOR ALL LAYERS
    PRINT BUDGET
 UBDSV1 SAVING "         STORAGE" ON UNIT  53 AT TIME STEP  1, STRESS PERIOD   2
 UBDSV2 SAVING "   CONSTANT HEAD" ON UNIT  53 AT TIME STEP  1, STRESS PERIOD   2
 UBDSV1 SAVING "FLOW RIGHT FACE " ON UNIT  53 AT TIME STEP  1, STRESS PERIOD   2
 UBDSV1 SAVING "FLOW FRONT FACE " ON UNIT  53 AT TIME STEP  1, STRESS PERIOD   2
1
              HEAD IN LAYER   1 AT END OF TIME STEP   1 IN STRESS PERIOD    2
  ---------------------------------------------------------------------------

            1           2           3           4           5           6           7           8           9          10
           11          12          13          14          15          16          17          18          19          20
           21          22          23          24          25          26          27          28          29          30
           31          32          33          34          35          36          37          38          39          40
           41          42          43          44          45          46          47          48          49          50
 ........................................................................................................................
   1    10.00       9.960       9.902       9.836       9.772       9.700       9.631       9.563       9.478       9.394    
        9.330       9.266       9.201       9.138       9.035       8.911       8.773       8.665       8.608       8.542    
        8.463       8.399       8.336       8.261       8.161       7.964       7.741       7.584       7.430       7.285    
        7.096       6.795       6.409       5.982       5.540       5.070       4.605       4.218       3.713       3.165    
        2.715       2.285       1.807       1.408       1.161      0.9524      0.7868      0.6669      0.4476       0.000    
   2    10.00       9.959       9.906       9.840       9.775       9.711       9.643       9.554       9.461       9.392    
        9.336       9.282       9.227       9.149       9.031       8.902       8.772       8.665       8.607       8.533    
        8.454       8.406       8.355       8.277       8.151       7.958       7.756       7.594       7.438       7.297    
        7.086       6.770       6.366       5.880       5.408       4.954       4.551       4.178       3.664       3.134    
        2.683       2.198       1.763       1.449       1.217       1.037      0.8317      0.6492      0.3621       0.000    
   3    10.00       9.953       9.901       9.842       9.785       9.720       9.633       9.539       9.473       9.412    
        9.349       9.300       9.252       9.176       9.055       8.896       8.755       8.668       8.600       8.525    
        8.461       8.411       8.358       8.256       8.119       7.948       7.773       7.645       7.464       7.278    
        7.014       6.640       6.182       5.712       5.292       4.867       4.472       4.072       3.540       3.049    
        2.661       2.214       1.814       1.526       1.295       1.109      0.8655      0.5802      0.2630       0.000    
   4    10.00       9.953       9.902       9.845       9.781       9.705       9.616       9.544       9.487       9.424    
        9.369       9.327       9.274       9.188       9.071       8.902       8.756       8.674       8.598       8.531    
        8.462       8.401       8.335       8.228       8.094       7.941       7.782       7.626       7.467       7.256    
        6.925       6.434       5.949       5.592       5.239       4.799       4.324       3.855       3.430       3.057    
        2.693       2.277       1.900       1.639       1.379       1.142      0.8410      0.5220      0.2500       0.000    
   5    10.00       9.950       9.899       9.834       9.769       9.699       9.619       9.557       9.498       9.439    
        9.391       9.351       9.280       9.181       9.052       8.899       8.774       8.685       8.611       8.522    
        8.441       8.375       8.295       8.190       8.070       7.915       7.757       7.613       7.451       7.198    
        6.728       6.184       5.795       5.514       5.164       4.685       4.194       3.767       3.446       3.108    
        2.749       2.365       1.990       1.746       1.467       1.125      0.7657      0.4656      0.2342       0.000    
   6    10.00       9.943       9.882       9.829       9.769       9.693       9.625       9.572       9.510       9.454    
        9.409       9.360       9.272       9.161       9.049       8.920       8.795       8.693       8.596       8.495    
        8.413       8.337       8.268       8.173       8.021       7.870       7.741       7.595       7.372       6.994    
        6.480       5.989       5.665       5.419       5.102       4.627       4.136       3.771       3.499       3.191    
        2.860       2.520       2.135       1.808       1.438       1.061      0.6765      0.4019      0.2213       0.000    
   7    10.00       9.932       9.873       9.823       9.762       9.698       9.638       9.587       9.530       9.476    
        9.420       9.347       9.251       9.146       9.040       8.940       8.810       8.674       8.562       8.463    
        8.378       8.305       8.244       8.130       7.975       7.845       7.715       7.524       7.176       6.699    
        6.206       5.806       5.581       5.359       4.990       4.547       4.213       3.855       3.554       3.350    
        3.034       2.667       2.214       1.748       1.334      0.9219      0.5831      0.4050      0.2085       0.000    
   8    10.00       9.931       9.878       9.822       9.760       9.704       9.651       9.600       9.548       9.496    
        9.423       9.330       9.235       9.136       9.039       8.927       8.768       8.625       8.535       8.440    
        8.346       8.282       8.197       8.077       7.944       7.808       7.595       7.302       6.875       6.457    
        6.080       5.760       5.548       5.292       4.900       4.529       4.227       3.961       3.722       3.485    
        3.175       2.713       2.156       1.660       1.228      0.8635      0.6175      0.3969      0.1902       0.000    
   9    10.00       9.942       9.877       9.816       9.770       9.724       9.671       9.617       9.559       9.503    
        9.420       9.315       9.213       9.115       9.012       8.881       8.729       8.598       8.501       8.405    
        8.322       8.242       8.129       8.017       7.897       7.736       7.438       7.048       6.650       6.342    
        6.027       5.751       5.515       5.192       4.825       4.510       4.277       4.075       3.860       3.598    
        3.225       2.720       2.152       1.658       1.238      0.8830      0.6233      0.4005      0.2048       0.000    
  10    10.00       9.940       9.872       9.821       9.779       9.734       9.686       9.640       9.574       9.492    
        9.393       9.283       9.187       9.095       8.991       8.833       8.673       8.561       8.471       8.381    
        8.303       8.198       8.074       7.951       7.816       7.596       7.228       6.820       6.472       6.223    
        6.012       5.766       5.484       5.152       4.800       4.526       4.340       4.163       3.929       3.628    
        3.201       2.678       2.158       1.736       1.341      0.9723      0.6430      0.4254      0.2286       0.000    
  11    10.00       9.927       9.872       9.831       9.789       9.751       9.707       9.643       9.553       9.463    
        9.364       9.257       9.169       9.061       8.921       8.772       8.642       8.542       8.460       8.370    
        8.259       8.129       7.971       7.834       7.625       7.327       7.010       6.695       6.389       6.189    
        6.021       5.719       5.401       5.124       4.845       4.622       4.423       4.195       3.906       3.544    
        3.143       2.737       2.236       1.819       1.443       1.076      0.7227      0.4178      0.1752       0.000    
  12    10.00       9.930       9.879       9.835       9.800       9.760       9.710       9.622       9.518       9.432    
        9.341       9.232       9.125       8.999       8.878       8.743       8.618       8.531       8.444       8.327    
        8.157       7.973       7.794       7.612       7.345       7.116       6.911       6.608       6.340       6.163    
        5.966       5.695       5.416       5.150       4.934       4.719       4.462       4.184       3.833       3.468    
        3.127       2.759       2.275       1.864       1.509       1.125      0.7607      0.3943      0.1308       0.000    
  13    10.00       9.943       9.895       9.849       9.807       9.760       9.682       9.581       9.485       9.397    
        9.296       9.191       9.083       8.954       8.823       8.697       8.607       8.506       8.396       8.187    
        7.946       7.757       7.565       7.335       7.127       6.997       6.774       6.507       6.336       6.162    
        5.916       5.663       5.434       5.215       5.020       4.817       4.507       4.127       3.786       3.440    
        3.113       2.731       2.212       1.830       1.525       1.116      0.6997      0.3407      0.1043       0.000    
  14    10.00       9.956       9.915       9.866       9.809       9.732       9.631       9.531       9.445       9.351    
        9.248       9.151       9.031       8.900       8.786       8.678       8.551       8.429       8.232       7.937    
        7.714       7.534       7.296       7.112       6.998       6.873       6.658       6.475       6.317       6.135    
        5.905       5.690       5.509       5.297       5.078       4.867       4.518       4.100       3.747       3.389    
        3.053       2.579       2.085       1.784       1.438       1.071      0.7017      0.3159      8.9964E-02   0.000    
  15    10.00       9.965       9.922       9.868       9.800       9.690       9.568       9.481       9.401       9.309    
        9.230       9.132       8.982       8.836       8.735       8.581       8.430       8.304       8.023       7.712    
        7.514       7.292       7.090       7.002       6.923       6.788       6.602       6.425       6.286       6.126    
        5.919       5.742       5.574       5.378       5.151       4.889       4.482       4.021       3.649       3.322    
        2.961       2.483       2.092       1.715       1.304      0.9803      0.6277      0.2900      9.8102E-02   0.000    
  16    10.00       9.971       9.925       9.859       9.760       9.629       9.521       9.452       9.383       9.291    
        9.197       9.059       8.879       8.743       8.607       8.439       8.338       8.108       7.733       7.472    
        7.298       7.111       7.021       6.954       6.847       6.693       6.541       6.420       6.299       6.140    
        5.948       5.774       5.627       5.427       5.151       4.805       4.347       3.949       3.651       3.301    
        2.881       2.410       1.990       1.582       1.228      0.8691      0.5637      0.2932      0.1046       0.000    
  17    10.00       9.967       9.912       9.824       9.712       9.578       9.483       9.424       9.343       9.248    
        9.087       8.901       8.755       8.623       8.457       8.298       8.108       7.766       7.465       7.304    
        7.167       7.052       6.988       6.883       6.737       6.624       6.548       6.457       6.323       6.140    
        5.959       5.793       5.634       5.441       5.064       4.617       4.262       3.994       3.701       3.277    
        2.745       2.285       1.895       1.512       1.102      0.7256      0.4810      0.2665      0.1110       0.000    
  18    10.00       9.954       9.884       9.782       9.636       9.524       9.458       9.372       9.276       9.138    
        8.941       8.790       8.658       8.468       8.263       8.058       7.809       7.528       7.346       7.223    
        7.118       7.020       6.927       6.802       6.688       6.623       6.570       6.489       6.343       6.154    
        5.978       5.801       5.596       5.306       4.927       4.560       4.271       4.049       3.680       3.163    
        2.650       2.168       1.776       1.417       1.024      0.6698      0.4068      0.2229      0.1040       0.000    
  19    10.00       9.938       9.858       9.711       9.567       9.502       9.420       9.310       9.195       9.042    
        8.871       8.725       8.523       8.264       8.059       7.866       7.612       7.390       7.278       7.200    
        7.095       6.985       6.887       6.776       6.694       6.637       6.578       6.487       6.344       6.170    
        5.992       5.788       5.514       5.205       4.882       4.563       4.308       4.023       3.507       3.000    
        2.595       2.102       1.677       1.327      0.9408      0.6039      0.3662      0.2116      0.1059       0.000    
  20    10.00       9.920       9.797       9.645       9.540       9.467       9.377       9.261       9.126       8.986    
        8.811       8.601       8.336       8.106       7.931       7.709       7.487       7.374       7.281       7.182    
        7.081       6.974       6.862       6.770       6.707       6.648       6.570       6.467       6.331       6.162    
        5.980       5.763       5.475       5.175       4.870       4.586       4.312       3.874       3.334       2.904    
        2.457       1.981       1.605       1.255      0.8949      0.5427      0.3180      0.2134      0.1078       0.000    
  21    10.00       9.874       9.748       9.625       9.516       9.434       9.337       9.190       9.055       8.922    
        8.698       8.441       8.200       8.016       7.834       7.627       7.472       7.377       7.280       7.180    
        7.070       6.961       6.867       6.778       6.701       6.628       6.553       6.442       6.295       6.134    
        5.954       5.719       5.445       5.160       4.872       4.589       4.202       3.759       3.286       2.775    
        2.326       1.880       1.555       1.234      0.7771      0.4578      0.3257      0.2375      0.1141       0.000    
  22    10.00       9.856       9.708       9.589       9.497       9.400       9.260       9.116       8.998       8.825    
        8.594       8.330       8.126       7.976       7.780       7.594       7.466       7.376       7.286       7.178    
        7.066       6.968       6.868       6.764       6.670       6.601       6.522       6.384       6.243       6.103    
        5.905       5.675       5.435       5.149       4.858       4.578       4.167       3.713       3.158       2.654    
        2.267       1.862       1.502       1.027      0.6382      0.4583      0.3443      0.2288      9.0789E-02   0.000    
  23    10.00       9.825       9.682       9.583       9.484       9.341       9.185       9.074       8.927       8.750    
        8.518       8.285       8.128       7.940       7.731       7.573       7.469       7.389       7.295       7.177    
        7.066       6.968       6.859       6.724       6.575       6.508       6.438       6.325       6.197       6.050    
        5.868       5.636       5.396       5.146       4.854       4.547       4.156       3.589       3.005       2.591    
        2.220       1.761       1.246      0.8356      0.6213      0.4696      0.3432      0.2175      0.1012       0.000    
  24    10.00       9.802       9.699       9.586       9.447       9.292       9.169       9.049       8.906       8.703    
        8.490       8.309       8.135       7.908       7.689       7.567       7.484       7.404       7.295       7.182    
        7.080       6.978       6.831       6.555       6.055       6.243       6.320       6.254       6.145       5.998    
        5.808       5.589       5.367       5.101       4.817       4.504       4.018       3.422       2.925       2.486    
        2.037       1.555       1.101      0.7952      0.6169      0.4660      0.3347      0.2535      0.1395       0.000    
  25    10.00       9.828       9.719       9.584       9.438       9.299       9.174       9.059       8.884       8.682    
        8.503       8.328       8.114       7.864       7.695       7.585       7.494       7.402       7.302       7.200    
        7.097       7.003       6.767       6.095       3.884       5.783       6.181       6.204       6.098       5.930    
        5.750       5.557       5.317       5.009       4.714       4.350       3.858       3.287       2.835       2.361    
        1.844       1.391       1.022      0.7850      0.6408      0.5005      0.3655      0.2693      0.1757       0.000    
  26    10.00       9.853       9.751       9.606       9.455       9.333       9.202       9.057       8.877       8.718    
        8.561       8.323       8.051       7.840       7.718       7.619       7.510       7.389       7.284       7.199    
        7.122       7.029       6.833       6.430       5.859       6.153       6.265       6.206       6.060       5.858    
        5.660       5.484       5.227       4.931       4.651       4.259       3.624       3.105       2.730       2.155    
        1.598       1.225       1.009      0.8507      0.6976      0.5423      0.4018      0.2942      0.1756       0.000    
  27    10.00       9.886       9.762       9.639       9.504       9.362       9.232       9.090       8.927       8.771    
        8.557       8.272       8.036       7.863       7.755       7.639       7.494       7.365       7.279       7.210    
        7.144       7.046       6.896       6.704       6.449       6.379       6.326       6.200       6.012       5.786    
        5.592       5.417       5.179       4.887       4.523       3.938       3.360       2.963       2.398       1.843    
        1.449       1.207       1.051      0.9166      0.7753      0.5963      0.4291      0.3211      0.2158       0.000    
  28    10.00       9.897       9.792       9.674       9.552       9.417       9.281       9.137       8.980       8.798    
        8.530       8.269       8.060       7.891       7.776       7.652       7.525       7.395       7.283       7.211    
        7.148       7.065       6.958       6.804       6.618       6.465       6.332       6.179       5.982       5.751    
        5.529       5.342       5.084       4.716       4.224       3.645       3.175       2.649       2.102       1.738    
        1.454       1.256       1.101      0.9678      0.8226      0.6513      0.4858      0.3649      0.2224       0.000    
  29    10.00       9.902       9.803       9.714       9.596       9.472       9.341       9.194       9.026       8.778    
        8.512       8.280       8.076       7.932       7.792       7.655       7.535       7.426       7.317       7.221    
        7.145       7.064       6.971       6.844       6.664       6.494       6.324       6.163       5.941       5.655    
        5.422       5.162       4.893       4.438       3.902       3.416       2.950       2.432       2.022       1.762    
        1.531       1.313       1.144       1.014      0.8726      0.6970      0.5266      0.3853      0.2246       0.000    
  30    10.00       9.910       9.828       9.750       9.647       9.533       9.414       9.249       9.036       8.779    
        8.502       8.262       8.089       7.941       7.797       7.664       7.557       7.462       7.353       7.236    
        7.141       7.053       6.955       6.839       6.645       6.452       6.290       6.119       5.857       5.553    
        5.242       4.900       4.588       4.160       3.758       3.317       2.845       2.379       2.083       1.847    
        1.586       1.372       1.209       1.054      0.8947      0.7393      0.5607      0.4013      0.2424       0.000    
  31    10.00       9.925       9.854       9.781       9.705       9.614       9.483       9.285       9.034       8.766    
        8.496       8.269       8.101       7.944       7.813       7.684       7.572       7.491       7.367       7.245    
        7.139       7.029       6.918       6.749       6.561       6.415       6.272       6.077       5.770       5.413    
        5.010       4.655       4.370       4.068       3.685       3.238       2.796       2.419       2.183       1.970    
        1.699       1.452       1.262       1.098      0.9398      0.7752      0.5964      0.4284      0.2357       0.000    
  32    10.00       9.937       9.882       9.818       9.744       9.661       9.528       9.301       9.062       8.815    
        8.524       8.285       8.113       7.962       7.822       7.706       7.603       7.493       7.379       7.255    
        7.116       6.990       6.835       6.648       6.515       6.420       6.268       5.987       5.597       5.194    
        4.834       4.542       4.280       4.009       3.651       3.256       2.888       2.560       2.307       2.067    
        1.814       1.557       1.354       1.163      0.9820      0.8334      0.6504      0.4284      0.2127       0.000    
  33    10.00       9.945       9.900       9.848       9.776       9.680       9.509       9.288       9.088       8.854    
        8.566       8.323       8.139       7.966       7.828       7.730       7.632       7.513       7.383       7.237    
        7.089       6.935       6.747       6.598       6.504       6.407       6.139       5.777       5.421       5.092    
        4.778       4.537       4.290       3.967       3.638       3.286       2.974       2.710       2.446       2.182    
        1.947       1.703       1.481       1.280       1.080      0.9037      0.6982      0.4367      0.2057       0.000    
  34    10.00       9.950       9.920       9.874       9.784       9.649       9.483       9.319       9.111       8.854    
        8.594       8.351       8.148       7.968       7.848       7.768       7.657       7.523       7.361       7.211    
        7.054       6.861       6.688       6.562       6.457       6.276       5.970       5.679       5.353       5.008    
        4.755       4.563       4.333       4.020       3.695       3.379       3.093       2.855       2.586       2.322    
        2.098       1.874       1.639       1.434       1.221       1.014      0.7532      0.4837      0.2550       0.000    
  35    10.00       9.959       9.924       9.865       9.751       9.608       9.486       9.345       9.150       8.869    
        8.588       8.355       8.144       7.992       7.892       7.799       7.666       7.505       7.336       7.163    
        6.970       6.781       6.605       6.482       6.364       6.196       5.911       5.587       5.251       4.941    
        4.763       4.572       4.335       4.098       3.825       3.495       3.211       3.020       2.749       2.456    
        2.246       2.023       1.799       1.598       1.361       1.130      0.8675      0.5789      0.2893       0.000    
  36    10.00       9.956       9.906       9.839       9.725       9.589       9.478       9.344       9.145       8.878    
        8.580       8.324       8.166       8.049       7.948       7.820       7.652       7.483       7.284       7.032    
        6.831       6.672       6.526       6.416       6.309       6.114       5.810       5.490       5.160       4.903    
        4.743       4.581       4.368       4.149       3.918       3.620       3.339       3.132       2.895       2.581    
        2.346       2.120       1.892       1.726       1.498       1.242      0.9802      0.6789      0.3453       0.000    
  37    10.00       9.941       9.885       9.812       9.696       9.571       9.446       9.314       9.130       8.839    
        8.535       8.326       8.229       8.112       7.972       7.833       7.625       7.407       7.134       6.871    
        6.742       6.617       6.475       6.353       6.220       5.981       5.711       5.374       5.099       4.923    
        4.770       4.598       4.382       4.194       3.955       3.671       3.451       3.251       2.989       2.676    
        2.395       2.175       1.994       1.809       1.592       1.355       1.104      0.7661      0.4150       0.000    
  38    10.00       9.934       9.861       9.782       9.675       9.551       9.410       9.272       9.074       8.803    
        8.569       8.402       8.277       8.163       7.995       7.763       7.514       7.227       6.929       6.776    
        6.676       6.515       6.365       6.266       6.108       5.876       5.556       5.267       5.120       4.982    
        4.811       4.620       4.417       4.227       3.994       3.736       3.540       3.336       3.024       2.698    
        2.454       2.251       2.067       1.882       1.689       1.461       1.201      0.8765      0.4547       0.000    
  39    10.00       9.916       9.841       9.762       9.656       9.516       9.364       9.217       9.035       8.815    
        8.631       8.504       8.358       8.185       7.912       7.600       7.283       6.974       6.802       6.714    
        6.559       6.381       6.274       6.179       6.027       5.760       5.463       5.291       5.164       5.018    
        4.834       4.655       4.450       4.248       4.051       3.840       3.614       3.377       3.057       2.736    
        2.480       2.276       2.133       1.986       1.777       1.543       1.282      0.9286      0.4547       0.000    
  40    10.00       9.901       9.828       9.748       9.640       9.493       9.335       9.186       9.032       8.847    
        8.693       8.580       8.383       8.086       7.730       7.378       7.061       6.859       6.753       6.630    
        6.454       6.305       6.214       6.088       5.913       5.698       5.513       5.345       5.196       5.057    
        4.887       4.689       4.483       4.294       4.114       3.900       3.657       3.420       3.072       2.722    
        2.491       2.322       2.173       2.047       1.835       1.575       1.335      0.9648      0.4763       0.000    
  41    10.00       9.908       9.822       9.733       9.612       9.478       9.340       9.205       9.056       8.890    
        8.742       8.595       8.313       7.927       7.534       7.218       6.976       6.809       6.697       6.552    
        6.371       6.246       6.136       6.003       5.855       5.707       5.574       5.413       5.235       5.075    
        4.922       4.735       4.527       4.356       4.169       3.960       3.712       3.382       2.997       2.728    
        2.541       2.365       2.228       2.069       1.846       1.588       1.376       1.024      0.5243       0.000    
  42    10.00       9.910       9.814       9.731       9.626       9.501       9.362       9.211       9.076       8.946    
        8.762       8.487       8.130       7.732       7.380       7.140       6.931       6.776       6.641       6.466    
        6.301       6.183       6.069       5.977       5.856       5.750       5.627       5.442       5.251       5.109    
        4.977       4.774       4.552       4.392       4.232       3.998       3.679       3.284       2.943       2.739    
        2.589       2.440       2.271       2.064       1.832       1.625       1.411       1.066      0.5485       0.000    
  43    10.00       9.911       9.822       9.737       9.653       9.541       9.401       9.251       9.102       8.910    
        8.635       8.317       7.953       7.571       7.303       7.103       6.905       6.739       6.575       6.401    
        6.249       6.138       6.057       5.987       5.882       5.769       5.647       5.465       5.296       5.181    
        5.013       4.791       4.583       4.425       4.241       3.955       3.581       3.200       2.963       2.802    
        2.644       2.483       2.276       2.053       1.842       1.641       1.449       1.063      0.4788       0.000    
  44    10.00       9.905       9.824       9.750       9.657       9.570       9.451       9.266       9.061       8.790    
        8.510       8.176       7.779       7.503       7.297       7.075       6.859       6.667       6.488       6.334    
        6.226       6.140       6.066       5.994       5.903       5.787       5.644       5.502       5.371       5.227    
        5.065       4.865       4.630       4.407       4.191       3.899       3.509       3.181       2.991       2.835    
        2.684       2.506       2.299       2.100       1.879       1.656       1.405      0.9101      0.4022       0.000    
  45    10.00       9.905       9.838       9.753       9.665       9.587       9.410       9.197       8.954       8.686    
        8.452       8.051       7.683       7.478       7.265       7.022       6.776       6.579       6.423       6.314    
        6.238       6.163       6.086       5.999       5.902       5.795       5.676       5.556       5.449       5.301    
        5.107       4.893       4.655       4.386       4.141       3.824       3.458       3.200       3.044       2.888    
        2.691       2.486       2.304       2.124       1.931       1.692       1.267      0.7628      0.3863       0.000    
  46    10.00       9.922       9.850       9.759       9.662       9.513       9.326       9.149       8.926       8.665    
        8.326       7.958       7.663       7.406       7.189       6.948       6.702       6.549       6.433       6.333    
        6.263       6.194       6.101       5.998       5.902       5.808       5.711       5.604       5.497       5.360    
        5.180       4.956       4.692       4.388       4.047       3.707       3.441       3.265       3.092       2.912    
        2.686       2.472       2.291       2.147       1.939       1.605       1.136      0.7184      0.3650       0.000    
  47    10.00       9.939       9.872       9.777       9.608       9.429       9.268       9.116       8.916       8.590    
        8.225       7.883       7.599       7.383       7.151       6.884       6.672       6.536       6.444       6.362    
        6.287       6.206       6.114       6.012       5.918       5.837       5.751       5.646       5.522       5.387    
        5.227       5.028       4.687       4.284       3.964       3.714       3.483       3.332       3.173       2.923    
        2.654       2.429       2.261       2.143       1.883       1.485       1.054      0.6912      0.3548       0.000    
  48    10.00       9.946       9.875       9.733       9.562       9.413       9.242       9.088       8.875       8.530    
        8.133       7.823       7.593       7.336       7.065       6.826       6.667       6.535       6.446       6.385    
        6.310       6.212       6.111       6.023       5.947       5.879       5.797       5.680       5.534       5.376    
        5.211       4.982       4.630       4.300       4.020       3.772       3.556       3.385       3.180       2.880    
        2.596       2.415       2.275       2.055       1.707       1.351       1.006      0.6961      0.3745       0.000    
  49    10.00       9.943       9.842       9.714       9.574       9.401       9.229       9.056       8.792       8.427    
        8.085       7.795       7.518       7.274       7.065       6.840       6.635       6.515       6.457       6.398    
        6.327       6.217       6.105       6.032       5.970       5.916       5.824       5.682       5.516       5.365    
        5.192       4.913       4.615       4.394       4.138       3.847       3.585       3.379       3.142       2.823    
        2.593       2.435       2.226       1.894       1.585       1.294      0.9949      0.6960      0.3732       0.000    
  50    10.00       9.935       9.830       9.700       9.573       9.411       9.218       9.003       8.724       8.436    
        8.078       7.716       7.458       7.264       7.088       6.834       6.607       6.517       6.465       6.406    
        6.335       6.221       6.107       6.036       5.983       5.933       5.829       5.666       5.498       5.355    
        5.177       4.890       4.660       4.461       4.193       3.904       3.630       3.347       3.024       2.757    
        2.638       2.459       2.136       1.803       1.574       1.292       1.009      0.6816      0.3039       0.000    

 HEAD WILL BE SAVED ON UNIT   51 AT END OF TIME STEP   1, STRESS PERIOD    2

 DRAWDOWN WILL BE SAVED ON UNIT   52 AT END OF TIME STEP   1, STRESS PERIOD    2
1
  VOLUMETRIC BUDGET FOR ENTIRE MODEL AT END OF TIME STEP  1 IN STRESS PERIOD   2
  ------------------------------------------------------------------------------

     CUMULATIVE VOLUMES      L**3       RATES FOR THIS TIME STEP      L**3/T
     ------------------                 ------------------------

           IN:                                      IN:
           ---                                      ---
             STORAGE =         500.0031               STORAGE =         500.0031
       CONSTANT HEAD =        1194.1774         CONSTANT HEAD =         597.0887
               WELLS =           0.0000                 WELLS =           0.0000

            TOTAL IN =        1694.1804              TOTAL IN =        1097.0918

          OUT:                                     OUT:
          ----                                     ----
             STORAGE =       3.1122E-03               STORAGE =       3.1122E-03
       CONSTANT HEAD =        1194.1772         CONSTANT HEAD =         597.0886
               WELLS =         500.0000                 WELLS =         500.0000

           TOTAL OUT =        1694.1803             TOTAL OUT =        1097.0917

            IN - OUT =       1.2207E-04              IN - OUT =       1.2207E-04

 PERCENT DISCREPANCY =           0.00     PERCENT DISCREPANCY =           0.00






          TIME SUMMARY AT END OF TIME STEP   1 IN STRESS PERIOD    2
                    SECONDS     MINUTES      HOURS       DAYS        YEARS
                    -----------------------------------------------------------
   TIME STEP LENGTH  86400.      1440.0      24.000      1.0000     2.73785E-03
 STRESS PERIOD TIME  86400.      1440.0      24.000      1.0000     2.73785E-03
         TOTAL TIME 1.72800E+05  2880.0      48.000      2.0000     5.47570E-03
1
 
 SOLVING FOR HEAD 

 OUTPUT CONTROL FOR STRESS PERIOD    2   TIME STEP   2
    SAVE HEAD FOR ALL LAYERS
    SAVE DRAWDOWN FOR ALL LAYERS
    SAVE BUDGET
    PRINT HEAD FOR ALL LAYERS
    PRINT BUDGET
 UBDSV1 SAVING "         STORAGE" ON UNIT  53 AT TIME STEP  2, STRESS PERIOD   2
 UBDSV2 SAVING "   CONSTANT HEAD" ON UNIT  53 AT TIME STEP  2, STRESS PERIOD   2
 UBDSV1 SAVING "FLOW RIGHT FACE " ON UNIT  53 AT TIME STEP  2, STRESS PERIOD   2
 UBDSV1 SAVING "FLOW FRONT FACE " ON UNIT  53 AT TIME STEP  2, STRESS PERIOD   2
1
              HEAD IN LAYER   1 AT END OF TIME STEP   2 IN STRESS PERIOD    2
  ---------------------------------------------------------------------------

            1           2           3           4           5           6           7           8           9          10
           11          12          13          14          15          16          17          18          19          20
           21          22          23          24          25          26          27          28          29          30
           31          32          33          34          35          36          37          38          39          40
           41          42          43          44          45          46          47          48          49          50
 ........................................................................................................................
   1    10.00       9.960       9.902       9.836       9.772       9.700       9.631       9.563       9.478       9.394    
        9.330       9.266       9.201       9.138       9.035       8.911       8.773       8.665       8.608       8.542    
        8.463       8.399       8.336       8.261       8.161       7.964       7.741       7.584       7.430       7.285    
        7.096       6.795       6.409       5.982       5.540       5.070       4.605       4.218       3.713       3.165    
        2.715       2.285       1.807       1.408       1.161      0.9524      0.7868      0.6669      0.4476       0.000    
[...]
        5.081       4.884       4.701       4.540       4.436       4.386       4.352       4.294       4.271       4.244    
        4.212       4.145       4.061       3.944       3.807       3.651       3.394       3.087       2.677       2.287    
        1.974       1.638       1.331      0.9183      0.5758      0.4151      0.3124      0.2079      8.2664E-02   0.000    
  23    10.00       9.768       9.576       9.442       9.304       9.101       8.873       8.707       8.482       8.202    
        7.824       7.432       7.159       6.819       6.429       6.121       5.911       5.743       5.534       5.258    
        4.997       4.765       4.522       4.235       3.979       3.928       4.000       4.034       4.083       4.101    
        4.089       4.049       3.980       3.888       3.758       3.597       3.361       2.980       2.552       2.233    
        1.935       1.553       1.112      0.7531      0.5629      0.4267      0.3126      0.1986      9.2510E-02   0.000    
  24    10.00       9.736       9.596       9.442       9.247       9.025       8.845       8.665       8.445       8.123    
        7.776       7.471       7.170       6.761       6.349       6.105       5.932       5.757       5.504       5.226    
        4.967       4.700       4.329       3.667       2.670       3.000       3.453       3.740       3.895       3.959    
        3.981       3.960       3.917       3.824       3.698       3.536       3.244       2.845       2.485       2.148    
        1.785       1.381      0.9900      0.7210      0.5618      0.4254      0.3062      0.2321      0.1278       0.000    
  25    10.00       9.770       9.623       9.437       9.232       9.033       8.849       8.678       8.409       8.089    
        7.798       7.504       7.136       6.689       6.369       6.146       5.953       5.746       5.511       5.252    
        4.972       4.706       4.028       2.620     -0.5723       2.011       2.987       3.477       3.739       3.861    
        3.900       3.895       3.852       3.745       3.614       3.417       3.115       2.734       2.409       2.045    
        1.628       1.247      0.9270      0.7166      0.5862      0.4586      0.3353      0.2472      0.1614       0.000    
  26    10.00       9.803       9.665       9.465       9.254       9.080       8.890       8.674       8.399       8.150    
        7.898       7.507       7.044       6.664       6.431       6.229       5.998       5.730       5.481       5.259    
        5.043       4.749       4.123       3.098       2.022       2.542       3.106       3.463       3.685       3.817    
        3.855       3.849       3.789       3.686       3.560       3.348       2.956       2.603       2.328       1.882    
        1.428       1.112      0.9222      0.7796      0.6402      0.4983      0.3697      0.2710      0.1618       0.000    
  27    10.00       9.847       9.680       9.510       9.322       9.121       8.933       8.724       8.478       8.239    
        7.903       7.444       7.043       6.733       6.526       6.300       5.997       5.703       5.499       5.322    
        5.141       4.837       4.366       3.798       3.192       3.207       3.405       3.592       3.736       3.818    
        3.840       3.824       3.766       3.660       3.490       3.158       2.788       2.508       2.083       1.641    
        1.312       1.102      0.9630      0.8420      0.7135      0.5495      0.3960      0.2964      0.1992       0.000    
  28    10.00       9.861       9.720       9.558       9.388       9.199       9.004       8.795       8.563       8.287    
        7.878       7.462       7.113       6.815       6.600       6.372       6.112       5.822       5.549       5.373    
        5.210       4.992       4.676       4.248       3.863       3.689       3.698       3.784       3.823       3.853    
        3.850       3.821       3.751       3.598       3.345       2.997       2.676       2.291       1.868       1.569    
        1.325       1.150       1.011      0.8911      0.7587      0.6018      0.4494      0.3377      0.2059       0.000    
  29    10.00       9.868       9.735       9.614       9.451       9.278       9.091       8.881       8.636       8.269    
        7.868       7.504       7.174       6.927       6.680       6.433       6.195       5.963       5.697       5.466    
        5.290       5.105       4.887       4.622       4.271       4.083       4.010       3.980       3.964       3.931    
        3.885       3.819       3.727       3.521       3.211       2.888       2.544       2.151       1.823       1.601    
        1.399       1.205       1.053      0.9357      0.8067      0.6456      0.4883      0.3576      0.2085       0.000    
  30    10.00       9.880       9.770       9.664       9.524       9.365       9.198       8.966       8.661       8.289    
        7.876       7.508       7.232       6.989       6.747       6.506       6.307       6.106       5.865       5.617    
        5.405       5.234       5.044       4.853       4.628       4.425       4.342       4.211       4.140       4.040    
        3.929       3.816       3.673       3.453       3.185       2.869       2.508       2.138       1.892       1.684    
        1.454       1.263       1.116      0.9753      0.8298      0.6869      0.5216      0.3736      0.2257       0.000    
  31    10.00       9.901       9.806       9.708       9.606       9.481       9.301       9.029       8.679       8.293    
        7.896       7.553       7.292       7.044       6.828       6.606       6.396       6.241       6.009       5.770    
        5.566       5.387       5.220       5.047       4.905       4.743       4.582       4.435       4.287       4.143    
        3.976       3.810       3.655       3.465       3.193       2.858       2.508       2.195       1.990       1.803    
        1.563       1.342       1.170       1.020      0.8753      0.7234      0.5569      0.4002      0.2203       0.000    
  32    10.00       9.917       9.845       9.760       9.661       9.549       9.372       9.067       8.740       8.389    
        7.970       7.615       7.354       7.121       6.905       6.719       6.531       6.336       6.148       5.919    
        5.704       5.510       5.348       5.190       5.058       4.944       4.766       4.598       4.410       4.213    
        4.027       3.848       3.668       3.477       3.218       2.910       2.613       2.333       2.113       1.903    
        1.681       1.448       1.264       1.087      0.9203      0.7818      0.6108      0.4027      0.2002       0.000    
  33    10.00       9.929       9.870       9.802       9.707       9.581       9.359       9.066       8.792       8.470    
        8.064       7.712       7.444       7.192       6.993       6.831       6.665       6.470       6.260       6.053    
        5.828       5.621       5.432       5.275       5.168       5.053       4.891       4.692       4.499       4.307    
        4.116       3.940       3.750       3.501       3.251       2.969       2.712       2.487       2.258       2.028    
        1.820       1.598       1.394       1.208       1.021      0.8549      0.6621      0.4152      0.1957       0.000    
  34    10.00       9.936       9.897       9.838       9.723       9.552       9.340       9.124       8.844       8.496    
        8.142       7.801       7.517       7.268       7.086       6.957       6.780       6.585       6.359       6.163    
        5.960       5.718       5.528       5.382       5.273       5.147       4.963       4.784       4.580       4.371    
        4.211       4.043       3.873       3.625       3.358       3.095       2.858       2.655       2.417       2.184    
        1.981       1.776       1.558       1.368       1.167      0.9708      0.7229      0.4650      0.2451       0.000    
  35    10.00       9.948       9.903       9.830       9.689       9.511       9.357       9.174       8.921       8.549    
        8.174       7.863       7.580       7.362       7.202       7.056       6.876       6.663       6.447       6.231    
        6.051       5.838       5.645       5.507       5.391       5.265       5.064       4.844       4.631       4.432    
        4.308       4.155       3.969       3.780       3.545       3.260       3.015       2.847       2.601       2.333    
        2.140       1.933       1.726       1.538       1.311       1.091      0.8395      0.5606      0.2801       0.000    
  36    10.00       9.945       9.884       9.802       9.663       9.495       9.358       9.191       8.939       8.596    
        8.210       7.876       7.662       7.482       7.332       7.156       6.942       6.737       6.512       6.258    
        6.067       5.901       5.733       5.614       5.497       5.347       5.142       4.913       4.696       4.503    
        4.373       4.246       4.067       3.884       3.681       3.420       3.167       2.977       2.759       2.466    
        2.247       2.039       1.827       1.670       1.451       1.206      0.9531      0.6606      0.3361       0.000    
  37    10.00       9.930       9.862       9.774       9.635       9.483       9.330       9.171       8.943       8.578    
        8.191       7.914       7.777       7.607       7.412       7.239       7.002       6.759       6.497       6.249    
        6.090       5.957       5.801       5.680       5.547       5.378       5.187       4.958       4.759       4.600    
        4.454       4.309       4.124       3.959       3.747       3.496       3.294       3.106       2.862       2.572    
        2.309       2.105       1.933       1.757       1.549       1.320       1.076      0.7474      0.4050       0.000    
  38    10.00       9.923       9.837       9.744       9.617       9.470       9.303       9.137       8.899       8.564    
        8.267       8.040       7.865       7.714       7.501       7.244       6.984       6.707       6.432       6.263    
        6.137       5.982       5.842       5.734       5.598       5.403       5.177       4.967       4.838       4.704    
        4.543       4.375       4.193       4.023       3.814       3.578       3.392       3.202       2.912       2.607    
        2.378       2.186       2.011       1.834       1.648       1.425       1.173      0.8565      0.4445       0.000    
  39    10.00       9.903       9.818       9.726       9.603       9.439       9.262       9.089       8.873       8.604    
        8.371       8.202       8.007       7.798       7.505       7.183       6.870       6.580       6.408       6.291    
        6.134       5.974       5.871       5.771       5.648       5.427       5.191       5.034       4.915       4.777    
        4.607       4.443       4.256       4.072       3.891       3.692       3.478       3.256       2.955       2.652    
        2.411       2.217       2.080       1.938       1.735       1.508       1.254      0.9088      0.4452       0.000    
  40    10.00       9.888       9.806       9.714       9.591       9.423       9.240       9.067       8.883       8.660    
        8.469       8.325       8.095       7.776       7.415       7.060       6.743       6.538       6.417       6.288    
        6.119       5.977       5.881       5.773       5.630       5.454       5.283       5.119       4.975       4.848    
        4.691       4.505       4.312       4.136       3.966       3.763       3.532       3.307       2.979       2.648    
        2.428       2.265       2.122       1.999       1.794       1.541       1.307      0.9450      0.4667       0.000    
  41    10.00       9.897       9.801       9.701       9.566       9.414       9.255       9.100       8.925       8.726    
        8.545       8.377       8.081       7.686       7.289       6.967       6.712       6.533       6.411       6.268    
        6.099       5.977       5.877       5.761       5.631       5.497       5.367       5.209       5.039       4.891    
        4.749       4.569       4.372       4.209       4.030       3.831       3.594       3.280       2.916       2.660    
        2.480       2.310       2.177       2.023       1.806       1.555       1.348       1.003      0.5140       0.000    
  42    10.00       9.901       9.795       9.703       9.586       9.444       9.287       9.115       8.960       8.808    
        8.599       8.308       7.943       7.538       7.182       6.930       6.708       6.538       6.399       6.229    
        6.074       5.961       5.862       5.775       5.659       5.558       5.436       5.258       5.077       4.943    
        4.813       4.619       4.406       4.253       4.099       3.875       3.571       3.196       2.871       2.674    
        2.530       2.385       2.220       2.020       1.794       1.592       1.382       1.045      0.5379       0.000    
  43    10.00       9.903       9.806       9.713       9.620       9.495       9.339       9.171       9.004       8.794    
        8.504       8.174       7.801       7.410       7.130       6.918       6.709       6.534       6.368       6.201    
        6.053       5.949       5.871       5.802       5.700       5.587       5.471       5.298       5.134       5.022    
        4.858       4.643       4.442       4.290       4.114       3.841       3.484       3.121       2.894       2.738    
        2.584       2.428       2.227       2.010       1.804       1.608       1.420       1.042      0.4696       0.000    
  44    10.00       9.897       9.809       9.729       9.627       9.533       9.401       9.199       8.979       8.695    
        8.404       8.057       7.649       7.364       7.145       6.912       6.685       6.489       6.310       6.160    
        6.053       5.966       5.891       5.819       5.731       5.617       5.480       5.343       5.214       5.072    
        4.915       4.721       4.494       4.279       4.072       3.794       3.421       3.106       2.923       2.772    
        2.625       2.452       2.251       2.057       1.841       1.624       1.378      0.8928      0.3947       0.000    
  45    10.00       9.897       9.825       9.733       9.638       9.554       9.366       9.139       8.883       8.604    
        8.359       7.944       7.564       7.350       7.130       6.877       6.623       6.422       6.264       6.153    
        6.075       5.997       5.918       5.832       5.737       5.634       5.518       5.401       5.296       5.151    
        4.962       4.754       4.525       4.265       4.029       3.727       3.376       3.126       2.976       2.824    
        2.633       2.434       2.257       2.082       1.893       1.659       1.243      0.7489      0.3794       0.000    
  46    10.00       9.916       9.838       9.741       9.637       9.480       9.284       9.097       8.863       8.590    
        8.239       7.858       7.552       7.285       7.061       6.812       6.559       6.402       6.282       6.179    
        6.106       6.034       5.941       5.838       5.744       5.652       5.557       5.452       5.347       5.215    
        5.040       4.823       4.567       4.274       3.946       3.620       3.363       3.192       3.024       2.849    
        2.630       2.422       2.246       2.105       1.902       1.576       1.116      0.7060      0.3587       0.000    
  47    10.00       9.934       9.863       9.762       9.583       9.394       9.226       9.067       8.858       8.518    
        8.140       7.786       7.492       7.268       7.027       6.751       6.533       6.393       6.298       6.213    
        6.135       6.052       5.960       5.859       5.765       5.685       5.600       5.496       5.376       5.245    
        5.090       4.898       4.570       4.182       3.873       3.631       3.406       3.259       3.105       2.863    
        2.601       2.383       2.218       2.103       1.849       1.459       1.036      0.6798      0.3490       0.000    
  48    10.00       9.942       9.868       9.717       9.536       9.380       9.200       9.040       8.818       8.460    
        8.048       7.727       7.489       7.222       6.942       6.695       6.530       6.393       6.302       6.239    
        6.162       6.062       5.961       5.872       5.797       5.729       5.648       5.533       5.391       5.238    
        5.079       4.859       4.521       4.201       3.930       3.689       3.479       3.313       3.114       2.824    
        2.547       2.371       2.233       2.018       1.678       1.329      0.9903      0.6851      0.3686       0.000    
  49    10.00       9.940       9.832       9.698       9.551       9.369       9.188       9.008       8.733       8.355    
        8.000       7.700       7.412       7.160       6.944       6.711       6.499       6.375       6.314       6.253    
        6.181       6.069       5.956       5.883       5.820       5.767       5.676       5.538       5.377       5.231    
        5.064       4.796       4.509       4.295       4.046       3.764       3.510       3.309       3.080       2.771    
        2.546       2.392       2.187       1.862       1.560       1.274      0.9794      0.6853      0.3675       0.000    
  50    10.00       9.932       9.821       9.683       9.550       9.380       9.179       8.954       8.664       8.365    
        7.995       7.618       7.352       7.150       6.968       6.705       6.470       6.377       6.323       6.262    
        6.190       6.074       5.959       5.887       5.835       5.785       5.683       5.525       5.362       5.223    
        5.052       4.775       4.553       4.361       4.102       3.822       3.556       3.282       2.968       2.707    
        2.592       2.417       2.100       1.774       1.549       1.272      0.9933      0.6714      0.2993       0.000    

 HEAD WILL BE SAVED ON UNIT   51 AT END OF TIME STEP 100, STRESS PERIOD    2

 DRAWDOWN WILL BE SAVED ON UNIT   52 AT END OF TIME STEP 100, STRESS PERIOD    2
1
  VOLUMETRIC BUDGET FOR ENTIRE MODEL AT END OF TIME STEP100 IN STRESS PERIOD   2
  ------------------------------------------------------------------------------

     CUMULATIVE VOLUMES      L**3       RATES FOR THIS TIME STEP      L**3/T
     ------------------                 ------------------------

           IN:                                      IN:
           ---                                      ---
             STORAGE =       45099.8359               STORAGE =         359.9990
       CONSTANT HEAD =       64284.7852         CONSTANT HEAD =         705.0977
               WELLS =           0.0000                 WELLS =           0.0000

            TOTAL IN =      109384.6250              TOTAL IN =        1065.0967

          OUT:                                     OUT:
          ----                                     ----
             STORAGE =       9.4320E-03               STORAGE =           0.0000
       CONSTANT HEAD =       59384.6055         CONSTANT HEAD =         565.0962
               WELLS =       50000.0000                 WELLS =         500.0000

           TOTAL OUT =      109384.6172             TOTAL OUT =        1065.0962

            IN - OUT =       7.8125E-03              IN - OUT =       4.8828E-04

 PERCENT DISCREPANCY =           0.00     PERCENT DISCREPANCY =           0.00






          TIME SUMMARY AT END OF TIME STEP 100 IN STRESS PERIOD    2
                    SECONDS     MINUTES      HOURS       DAYS        YEARS
                    -----------------------------------------------------------
   TIME STEP LENGTH  86400.      1440.0      24.000      1.0000     2.73785E-03
 STRESS PERIOD TIME 8.64000E+06 1.44000E+05  2400.0      100.00     0.27379    
         TOTAL TIME 8.72640E+06 1.45440E+05  2424.0      101.00     0.27652    
1
